MODEL 1
REMARK minimizedAffinity -5.9465251
REMARK CNNscore 0.898743987
REMARK CNNaffinity 5.02208233
REMARK  10 active torsions:
REMARK  status: ('A' for Active; 'I' for Inactive)
REMARK    1  A    between atoms: O_2  and  C_19 
REMARK    2  A    between atoms: O_3  and  C_21 
REMARK       I    between atoms: N_4  and  C_11 
REMARK    3  A    between atoms: N_4  and  C_13 
REMARK    4  A    between atoms: C_5  and  C_6 
REMARK    5  A    between atoms: C_5  and  C_7 
REMARK    6  A    between atoms: C_6  and  C_8 
REMARK    7  A    between atoms: C_7  and  C_10 
REMARK    8  A    between atoms: C_8  and  C_11 
REMARK    9  A    between atoms: C_9  and  C_12 
REMARK   10  A    between atoms: C_13  and  C_14 
ROOT
HETATM    1  O   UNK N   1     -11.532   1.368 -63.635  0.00  0.00    -0.274 OA
HETATM    2  N   UNK N   1     -10.455   0.424 -61.902  0.00  0.00    -0.357 N 
HETATM    3  C   UNK N   1     -10.509   1.264 -62.976  0.00  0.00     0.217 C 
HETATM    4  H   UNK N   1      -9.570   0.317 -61.387  0.00  0.00     0.162 HD
ENDROOT
BRANCH   2   5
HETATM    5  C   UNK N   1     -11.601  -0.348 -61.465  0.00  0.00     0.161 C 
BRANCH   5   6
HETATM    6  C   UNK N   1     -11.247  -1.808 -61.366  0.00  0.00    -0.038 A 
HETATM    7  C   UNK N   1     -11.321  -2.468 -60.134  0.00  0.00     0.048 A 
HETATM    8  C   UNK N   1     -11.003  -3.839 -60.033  0.00  0.00     0.101 A 
HETATM    9  C   UNK N   1     -10.613  -4.542 -61.186  0.00  0.00     0.099 A 
HETATM   10  C   UNK N   1     -10.536  -3.878 -62.419  0.00  0.00     0.040 A 
HETATM   11  C   UNK N   1     -10.849  -2.519 -62.508  0.00  0.00     0.012 A 
BRANCH   8  12
HETATM   12  O   UNK N   1     -11.068  -4.502 -58.847  0.00  0.00    -0.353 OA
HETATM   13  C   UNK N   1     -12.235  -4.958 -58.267  0.00  0.00     0.210 C 
ENDBRANCH   8  12
BRANCH   9  14
HETATM   14  O   UNK N   1     -10.315  -5.856 -61.099  0.00  0.00    -0.358 OA
HETATM   15  H   UNK N   1     -10.054  -6.371 -61.876  0.00  0.00     0.217 HD
ENDBRANCH   9  14
ENDBRANCH   5   6
ENDBRANCH   2   5
BRANCH   3  16
HETATM   16  C   UNK N   1      -9.295   2.072 -63.363  0.00  0.00     0.103 C 
BRANCH  16  17
HETATM   17  C   UNK N   1      -8.076   1.697 -62.506  0.00  0.00     0.010 C 
BRANCH  17  18
HETATM   18  C   UNK N   1      -6.832   2.523 -62.874  0.00  0.00     0.004 C 
BRANCH  18  19
HETATM   19  C   UNK N   1      -6.211   3.157 -61.629  0.00  0.00     0.027 C 
BRANCH  19  20
HETATM   20  C   UNK N   1      -6.434   4.645 -61.627  0.00  0.00    -0.030 C 
HETATM   21  C   UNK N   1      -5.697   5.469 -60.863  0.00  0.00    -0.027 C 
BRANCH  21  22
HETATM   22  C   UNK N   1      -5.914   6.963 -60.877  0.00  0.00    -0.001 C 
HETATM   23  C   UNK N   1      -4.583   7.678 -60.622  0.00  0.00     0.013 C 
HETATM   24  C   UNK N   1      -6.946   7.354 -59.817  0.00  0.00     0.013 C 
ENDBRANCH  21  22
ENDBRANCH  19  20
ENDBRANCH  18  19
ENDBRANCH  17  18
ENDBRANCH  16  17
ENDBRANCH   3  16
TORSDOF 10
ENDMDL
MODEL 2
REMARK minimizedAffinity -5.19604731
REMARK CNNscore 0.544630051
REMARK CNNaffinity 4.9439764
REMARK  10 active torsions:
REMARK  status: ('A' for Active; 'I' for Inactive)
REMARK    1  A    between atoms: O_2  and  C_19 
REMARK    2  A    between atoms: O_3  and  C_21 
REMARK       I    between atoms: N_4  and  C_11 
REMARK    3  A    between atoms: N_4  and  C_13 
REMARK    4  A    between atoms: C_5  and  C_6 
REMARK    5  A    between atoms: C_5  and  C_7 
REMARK    6  A    between atoms: C_6  and  C_8 
REMARK    7  A    between atoms: C_7  and  C_10 
REMARK    8  A    between atoms: C_8  and  C_11 
REMARK    9  A    between atoms: C_9  and  C_12 
REMARK   10  A    between atoms: C_13  and  C_14 
ROOT
HETATM    1  O   UNK N   1      -8.474   5.035 -58.452  0.00  0.00    -0.274 OA
HETATM    2  N   UNK N   1      -9.265   6.047 -60.296  0.00  0.00    -0.357 N 
HETATM    3  C   UNK N   1      -8.369   5.931 -59.275  0.00  0.00     0.217 C 
HETATM    4  H   UNK N   1      -9.185   6.836 -60.954  0.00  0.00     0.162 HD
ENDROOT
BRANCH   2   5
HETATM    5  C   UNK N   1     -10.350   5.106 -60.485  0.00  0.00     0.161 C 
BRANCH   5   6
HETATM    6  C   UNK N   1     -10.472   4.723 -61.936  0.00  0.00    -0.038 A 
HETATM    7  C   UNK N   1     -10.586   5.715 -62.918  0.00  0.00     0.048 A 
HETATM    8  C   UNK N   1     -10.690   5.367 -64.281  0.00  0.00     0.101 A 
HETATM    9  C   UNK N   1     -10.674   4.012 -64.649  0.00  0.00     0.099 A 
HETATM   10  C   UNK N   1     -10.562   3.019 -63.665  0.00  0.00     0.040 A 
HETATM   11  C   UNK N   1     -10.465   3.372 -62.316  0.00  0.00     0.012 A 
BRANCH   8  12
HETATM   12  O   UNK N   1     -10.801   6.313 -65.253  0.00  0.00    -0.353 OA
HETATM   13  C   UNK N   1      -9.862   7.294 -65.503  0.00  0.00     0.210 C 
ENDBRANCH   8  12
BRANCH   9  14
HETATM   14  O   UNK N   1     -10.763   3.671 -65.953  0.00  0.00    -0.358 OA
HETATM   15  H   UNK N   1     -10.744   2.747 -66.240  0.00  0.00     0.217 HD
ENDBRANCH   9  14
ENDBRANCH   5   6
ENDBRANCH   2   5
BRANCH   3  16
HETATM   16  C   UNK N   1      -7.236   6.920 -59.151  0.00  0.00     0.103 C 
BRANCH  16  17
HETATM   17  C   UNK N   1      -5.870   6.225 -59.264  0.00  0.00     0.010 C 
BRANCH  17  18
HETATM   18  C   UNK N   1      -4.953   6.912 -60.289  0.00  0.00     0.004 C 
BRANCH  18  19
HETATM   19  C   UNK N   1      -5.711   7.217 -61.582  0.00  0.00     0.027 C 
BRANCH  19  20
HETATM   20  C   UNK N   1      -5.822   5.980 -62.433  0.00  0.00    -0.030 C 
HETATM   21  C   UNK N   1      -6.967   5.650 -63.052  0.00  0.00    -0.027 C 
BRANCH  21  22
HETATM   22  C   UNK N   1      -7.069   4.417 -63.919  0.00  0.00    -0.001 C 
HETATM   23  C   UNK N   1      -6.713   3.177 -63.093  0.00  0.00     0.013 C 
HETATM   24  C   UNK N   1      -6.135   4.546 -65.125  0.00  0.00     0.013 C 
ENDBRANCH  21  22
ENDBRANCH  19  20
ENDBRANCH  18  19
ENDBRANCH  17  18
ENDBRANCH  16  17
ENDBRANCH   3  16
TORSDOF 10
ENDMDL
MODEL 3
REMARK minimizedAffinity -6.0874362
REMARK CNNscore 0.524017036
REMARK CNNaffinity 5.07564831
REMARK  10 active torsions:
REMARK  status: ('A' for Active; 'I' for Inactive)
REMARK    1  A    between atoms: O_2  and  C_19 
REMARK    2  A    between atoms: O_3  and  C_21 
REMARK       I    between atoms: N_4  and  C_11 
REMARK    3  A    between atoms: N_4  and  C_13 
REMARK    4  A    between atoms: C_5  and  C_6 
REMARK    5  A    between atoms: C_5  and  C_7 
REMARK    6  A    between atoms: C_6  and  C_8 
REMARK    7  A    between atoms: C_7  and  C_10 
REMARK    8  A    between atoms: C_8  and  C_11 
REMARK    9  A    between atoms: C_9  and  C_12 
REMARK   10  A    between atoms: C_13  and  C_14 
ROOT
HETATM    1  O   UNK N   1      -8.685   6.020 -63.766  0.00  0.00    -0.274 OA
HETATM    2  N   UNK N   1      -9.972   4.750 -65.101  0.00  0.00    -0.357 N 
HETATM    3  C   UNK N   1      -8.981   4.909 -64.178  0.00  0.00     0.217 C 
HETATM    4  H   UNK N   1     -10.176   3.809 -65.469  0.00  0.00     0.162 HD
ENDROOT
BRANCH   2   5
HETATM    5  C   UNK N   1     -10.747   5.866 -65.606  0.00  0.00     0.161 C 
BRANCH   5   6
HETATM    6  C   UNK N   1     -10.583   5.991 -67.098  0.00  0.00    -0.038 A 
HETATM    7  C   UNK N   1      -9.316   5.866 -67.679  0.00  0.00     0.048 A 
HETATM    8  C   UNK N   1      -9.153   5.971 -69.076  0.00  0.00     0.101 A 
HETATM    9  C   UNK N   1     -10.279   6.199 -69.885  0.00  0.00     0.099 A 
HETATM   10  C   UNK N   1     -11.547   6.326 -69.301  0.00  0.00     0.040 A 
HETATM   11  C   UNK N   1     -11.699   6.226 -67.916  0.00  0.00     0.012 A 
BRANCH   8  12
HETATM   12  O   UNK N   1      -7.932   5.853 -69.664  0.00  0.00    -0.353 OA
HETATM   13  C   UNK N   1      -6.781   6.467 -69.212  0.00  0.00     0.210 C 
ENDBRANCH   8  12
BRANCH   9  14
HETATM   14  O   UNK N   1     -10.133   6.291 -71.225  0.00  0.00    -0.358 OA
HETATM   15  H   UNK N   1     -10.889   6.437 -71.810  0.00  0.00     0.217 HD
ENDBRANCH   9  14
ENDBRANCH   5   6
ENDBRANCH   2   5
BRANCH   3  16
HETATM   16  C   UNK N   1      -8.233   3.706 -63.660  0.00  0.00     0.103 C 
BRANCH  16  17
HETATM   17  C   UNK N   1      -6.870   3.553 -64.351  0.00  0.00     0.010 C 
BRANCH  17  18
HETATM   18  C   UNK N   1      -5.705   3.971 -63.437  0.00  0.00     0.004 C 
BRANCH  18  19
HETATM   19  C   UNK N   1      -6.140   3.981 -61.971  0.00  0.00     0.027 C 
BRANCH  19  20
HETATM   20  C   UNK N   1      -6.041   5.370 -61.400  0.00  0.00    -0.030 C 
HETATM   21  C   UNK N   1      -5.376   5.619 -60.260  0.00  0.00    -0.027 C 
BRANCH  21  22
HETATM   22  C   UNK N   1      -5.265   7.018 -59.700  0.00  0.00    -0.001 C 
HETATM   23  C   UNK N   1      -6.639   7.485 -59.209  0.00  0.00     0.013 C 
HETATM   24  C   UNK N   1      -4.723   7.970 -60.769  0.00  0.00     0.013 C 
ENDBRANCH  21  22
ENDBRANCH  19  20
ENDBRANCH  18  19
ENDBRANCH  17  18
ENDBRANCH  16  17
ENDBRANCH   3  16
TORSDOF 10
ENDMDL
MODEL 4
REMARK minimizedAffinity -6.34199286
REMARK CNNscore 0.516955256
REMARK CNNaffinity 5.00915432
REMARK  10 active torsions:
REMARK  status: ('A' for Active; 'I' for Inactive)
REMARK    1  A    between atoms: O_2  and  C_19 
REMARK    2  A    between atoms: O_3  and  C_21 
REMARK       I    between atoms: N_4  and  C_11 
REMARK    3  A    between atoms: N_4  and  C_13 
REMARK    4  A    between atoms: C_5  and  C_6 
REMARK    5  A    between atoms: C_5  and  C_7 
REMARK    6  A    between atoms: C_6  and  C_8 
REMARK    7  A    between atoms: C_7  and  C_10 
REMARK    8  A    between atoms: C_8  and  C_11 
REMARK    9  A    between atoms: C_9  and  C_12 
REMARK   10  A    between atoms: C_13  and  C_14 
ROOT
HETATM    1  O   UNK N   1     -11.249   6.940 -63.613  0.00  0.00    -0.274 OA
HETATM    2  N   UNK N   1     -11.266   5.083 -64.880  0.00  0.00    -0.357 N 
HETATM    3  C   UNK N   1     -11.081   5.733 -63.696  0.00  0.00     0.217 C 
HETATM    4  H   UNK N   1     -11.075   4.072 -64.939  0.00  0.00     0.162 HD
ENDROOT
BRANCH   2   5
HETATM    5  C   UNK N   1     -11.707   5.767 -66.079  0.00  0.00     0.161 C 
BRANCH   5   6
HETATM    6  C   UNK N   1     -10.571   5.905 -67.057  0.00  0.00    -0.038 A 
HETATM    7  C   UNK N   1      -9.292   5.449 -66.718  0.00  0.00     0.048 A 
HETATM    8  C   UNK N   1      -8.223   5.564 -67.631  0.00  0.00     0.101 A 
HETATM    9  C   UNK N   1      -8.454   6.137 -68.893  0.00  0.00     0.099 A 
HETATM   10  C   UNK N   1      -9.736   6.595 -69.230  0.00  0.00     0.040 A 
HETATM   11  C   UNK N   1     -10.787   6.482 -68.317  0.00  0.00     0.012 A 
BRANCH   8  12
HETATM   12  O   UNK N   1      -6.971   5.128 -67.324  0.00  0.00    -0.353 OA
HETATM   13  C   UNK N   1      -6.619   4.531 -66.130  0.00  0.00     0.210 C 
ENDBRANCH   8  12
BRANCH   9  14
HETATM   14  O   UNK N   1      -7.438   6.241 -69.777  0.00  0.00    -0.358 OA
HETATM   15  H   UNK N   1      -7.567   6.621 -70.657  0.00  0.00     0.217 HD
ENDBRANCH   9  14
ENDBRANCH   5   6
ENDBRANCH   2   5
BRANCH   3  16
HETATM   16  C   UNK N   1     -10.657   4.961 -62.471  0.00  0.00     0.103 C 
BRANCH  16  17
HETATM   17  C   UNK N   1     -10.958   5.743 -61.183  0.00  0.00     0.010 C 
BRANCH  17  18
HETATM   18  C   UNK N   1      -9.737   5.820 -60.251  0.00  0.00     0.004 C 
BRANCH  18  19
HETATM   19  C   UNK N   1      -8.441   5.594 -61.031  0.00  0.00     0.027 C 
BRANCH  19  20
HETATM   20  C   UNK N   1      -7.356   6.510 -60.530  0.00  0.00    -0.030 C 
HETATM   21  C   UNK N   1      -6.140   6.048 -60.197  0.00  0.00    -0.027 C 
BRANCH  21  22
HETATM   22  C   UNK N   1      -5.050   6.973 -59.711  0.00  0.00    -0.001 C 
HETATM   23  C   UNK N   1      -5.553   7.768 -58.502  0.00  0.00     0.013 C 
HETATM   24  C   UNK N   1      -4.623   7.918 -60.837  0.00  0.00     0.013 C 
ENDBRANCH  21  22
ENDBRANCH  19  20
ENDBRANCH  18  19
ENDBRANCH  17  18
ENDBRANCH  16  17
ENDBRANCH   3  16
TORSDOF 10
ENDMDL
MODEL 5
REMARK minimizedAffinity -5.47821093
REMARK CNNscore 0.50553292
REMARK CNNaffinity 5.09812927
REMARK  10 active torsions:
REMARK  status: ('A' for Active; 'I' for Inactive)
REMARK    1  A    between atoms: O_2  and  C_19 
REMARK    2  A    between atoms: O_3  and  C_21 
REMARK       I    between atoms: N_4  and  C_11 
REMARK    3  A    between atoms: N_4  and  C_13 
REMARK    4  A    between atoms: C_5  and  C_6 
REMARK    5  A    between atoms: C_5  and  C_7 
REMARK    6  A    between atoms: C_6  and  C_8 
REMARK    7  A    between atoms: C_7  and  C_10 
REMARK    8  A    between atoms: C_8  and  C_11 
REMARK    9  A    between atoms: C_9  and  C_12 
REMARK   10  A    between atoms: C_13  and  C_14 
ROOT
HETATM    1  O   UNK N   1     -11.108   6.863 -63.964  0.00  0.00    -0.274 OA
HETATM    2  N   UNK N   1     -10.748   4.670 -64.305  0.00  0.00    -0.357 N 
HETATM    3  C   UNK N   1     -10.852   5.958 -64.743  0.00  0.00     0.217 C 
HETATM    4  H   UNK N   1     -10.575   3.916 -64.985  0.00  0.00     0.162 HD
ENDROOT
BRANCH   2   5
HETATM    5  C   UNK N   1     -10.890   4.314 -62.908  0.00  0.00     0.161 C 
BRANCH   5   6
HETATM    6  C   UNK N   1     -11.936   3.244 -62.740  0.00  0.00    -0.038 A 
HETATM    7  C   UNK N   1     -12.325   2.836 -61.458  0.00  0.00     0.048 A 
HETATM    8  C   UNK N   1     -13.312   1.841 -61.290  0.00  0.00     0.101 A 
HETATM    9  C   UNK N   1     -13.907   1.264 -62.423  0.00  0.00     0.099 A 
HETATM   10  C   UNK N   1     -13.515   1.672 -63.706  0.00  0.00     0.040 A 
HETATM   11  C   UNK N   1     -12.533   2.653 -63.864  0.00  0.00     0.012 A 
BRANCH   8  12
HETATM   12  O   UNK N   1     -13.706   1.429 -60.055  0.00  0.00    -0.353 OA
HETATM   13  C   UNK N   1     -13.737   2.232 -58.933  0.00  0.00     0.210 C 
ENDBRANCH   8  12
BRANCH   9  14
HETATM   14  O   UNK N   1     -14.859   0.318 -62.270  0.00  0.00    -0.358 OA
HETATM   15  H   UNK N   1     -15.296  -0.092 -63.030  0.00  0.00     0.217 HD
ENDBRANCH   9  14
ENDBRANCH   5   6
ENDBRANCH   2   5
BRANCH   3  16
HETATM   16  C   UNK N   1     -10.656   6.275 -66.205  0.00  0.00     0.103 C 
BRANCH  16  17
HETATM   17  C   UNK N   1     -11.521   5.369 -67.096  0.00  0.00     0.010 C 
BRANCH  17  18
HETATM   18  C   UNK N   1     -12.999   5.794 -67.095  0.00  0.00     0.004 C 
BRANCH  18  19
HETATM   19  C   UNK N   1     -13.913   4.589 -66.871  0.00  0.00     0.027 C 
BRANCH  19  20
HETATM   20  C   UNK N   1     -13.309   3.349 -67.474  0.00  0.00    -0.030 C 
HETATM   21  C   UNK N   1     -13.867   2.138 -67.305  0.00  0.00    -0.027 C 
BRANCH  21  22
HETATM   22  C   UNK N   1     -13.267   0.900 -67.927  0.00  0.00    -0.001 C 
HETATM   23  C   UNK N   1     -14.383  -0.084 -68.292  0.00  0.00     0.013 C 
HETATM   24  C   UNK N   1     -12.275   0.253 -66.957  0.00  0.00     0.013 C 
ENDBRANCH  21  22
ENDBRANCH  19  20
ENDBRANCH  18  19
ENDBRANCH  17  18
ENDBRANCH  16  17
ENDBRANCH   3  16
TORSDOF 10
ENDMDL
MODEL 6
REMARK minimizedAffinity -6.28031301
REMARK CNNscore 0.49414593
REMARK CNNaffinity 5.06952
REMARK  10 active torsions:
REMARK  status: ('A' for Active; 'I' for Inactive)
REMARK    1  A    between atoms: O_2  and  C_19 
REMARK    2  A    between atoms: O_3  and  C_21 
REMARK       I    between atoms: N_4  and  C_11 
REMARK    3  A    between atoms: N_4  and  C_13 
REMARK    4  A    between atoms: C_5  and  C_6 
REMARK    5  A    between atoms: C_5  and  C_7 
REMARK    6  A    between atoms: C_6  and  C_8 
REMARK    7  A    between atoms: C_7  and  C_10 
REMARK    8  A    between atoms: C_8  and  C_11 
REMARK    9  A    between atoms: C_9  and  C_12 
REMARK   10  A    between atoms: C_13  and  C_14 
ROOT
HETATM    1  O   UNK N   1     -11.213   7.414 -64.485  0.00  0.00    -0.274 OA
HETATM    2  N   UNK N   1      -9.534   6.671 -65.782  0.00  0.00    -0.357 N 
HETATM    3  C   UNK N   1     -10.263   6.660 -64.629  0.00  0.00     0.217 C 
HETATM    4  H   UNK N   1      -8.710   6.059 -65.866  0.00  0.00     0.162 HD
ENDROOT
BRANCH   2   5
HETATM    5  C   UNK N   1      -9.864   7.533 -66.899  0.00  0.00     0.161 C 
BRANCH   5   6
HETATM    6  C   UNK N   1     -10.423   6.727 -68.041  0.00  0.00    -0.038 A 
HETATM    7  C   UNK N   1     -11.619   6.016 -67.881  0.00  0.00     0.048 A 
HETATM    8  C   UNK N   1     -12.157   5.267 -68.948  0.00  0.00     0.101 A 
HETATM    9  C   UNK N   1     -11.483   5.242 -70.181  0.00  0.00     0.099 A 
HETATM   10  C   UNK N   1     -10.284   5.953 -70.339  0.00  0.00     0.040 A 
HETATM   11  C   UNK N   1      -9.756   6.689 -69.275  0.00  0.00     0.012 A 
BRANCH   8  12
HETATM   12  O   UNK N   1     -13.317   4.568 -68.817  0.00  0.00    -0.353 OA
HETATM   13  C   UNK N   1     -13.428   3.342 -68.192  0.00  0.00     0.210 C 
ENDBRANCH   8  12
BRANCH   9  14
HETATM   14  O   UNK N   1     -11.997   4.535 -71.210  0.00  0.00    -0.358 OA
HETATM   15  H   UNK N   1     -11.563   4.506 -72.075  0.00  0.00     0.217 HD
ENDBRANCH   9  14
ENDBRANCH   5   6
ENDBRANCH   2   5
BRANCH   3  16
HETATM   16  C   UNK N   1      -9.895   5.714 -63.514  0.00  0.00     0.103 C 
BRANCH  16  17
HETATM   17  C   UNK N   1     -11.126   5.316 -62.686  0.00  0.00     0.010 C 
BRANCH  17  18
HETATM   18  C   UNK N   1     -11.058   5.857 -61.248  0.00  0.00     0.004 C 
BRANCH  18  19
HETATM   19  C   UNK N   1     -10.855   4.719 -60.247  0.00  0.00     0.027 C 
BRANCH  19  20
HETATM   20  C   UNK N   1      -9.644   4.978 -59.390  0.00  0.00    -0.030 C 
HETATM   21  C   UNK N   1      -8.590   5.672 -59.851  0.00  0.00    -0.027 C 
BRANCH  21  22
HETATM   22  C   UNK N   1      -7.384   5.944 -58.983  0.00  0.00    -0.001 C 
HETATM   23  C   UNK N   1      -7.107   7.451 -58.947  0.00  0.00     0.013 C 
HETATM   24  C   UNK N   1      -6.169   5.185 -59.520  0.00  0.00     0.013 C 
ENDBRANCH  21  22
ENDBRANCH  19  20
ENDBRANCH  18  19
ENDBRANCH  17  18
ENDBRANCH  16  17
ENDBRANCH   3  16
TORSDOF 10
ENDMDL
MODEL 7
REMARK minimizedAffinity -5.48914719
REMARK CNNscore 0.479948878
REMARK CNNaffinity 4.88225555
REMARK  10 active torsions:
REMARK  status: ('A' for Active; 'I' for Inactive)
REMARK    1  A    between atoms: O_2  and  C_19 
REMARK    2  A    between atoms: O_3  and  C_21 
REMARK       I    between atoms: N_4  and  C_11 
REMARK    3  A    between atoms: N_4  and  C_13 
REMARK    4  A    between atoms: C_5  and  C_6 
REMARK    5  A    between atoms: C_5  and  C_7 
REMARK    6  A    between atoms: C_6  and  C_8 
REMARK    7  A    between atoms: C_7  and  C_10 
REMARK    8  A    between atoms: C_8  and  C_11 
REMARK    9  A    between atoms: C_9  and  C_12 
REMARK   10  A    between atoms: C_13  and  C_14 
ROOT
HETATM    1  O   UNK N   1      -5.542   4.239 -63.908  0.00  0.00    -0.274 OA
HETATM    2  N   UNK N   1      -7.007   5.587 -62.864  0.00  0.00    -0.357 N 
HETATM    3  C   UNK N   1      -6.684   4.437 -63.524  0.00  0.00     0.217 C 
HETATM    4  H   UNK N   1      -7.986   5.754 -62.588  0.00  0.00     0.162 HD
ENDROOT
BRANCH   2   5
HETATM    5  C   UNK N   1      -6.023   6.602 -62.550  0.00  0.00     0.161 C 
BRANCH   5   6
HETATM    6  C   UNK N   1      -5.998   6.874 -61.069  0.00  0.00    -0.038 A 
HETATM    7  C   UNK N   1      -6.938   6.268 -60.227  0.00  0.00     0.048 A 
HETATM    8  C   UNK N   1      -6.918   6.508 -58.837  0.00  0.00     0.101 A 
HETATM    9  C   UNK N   1      -5.938   7.360 -58.300  0.00  0.00     0.099 A 
HETATM   10  C   UNK N   1      -4.999   7.968 -59.145  0.00  0.00     0.040 A 
HETATM   11  C   UNK N   1      -5.030   7.729 -60.522  0.00  0.00     0.012 A 
BRANCH   8  12
HETATM   12  O   UNK N   1      -7.820   5.930 -57.999  0.00  0.00    -0.353 OA
HETATM   13  C   UNK N   1      -7.695   4.664 -57.463  0.00  0.00     0.210 C 
ENDBRANCH   8  12
BRANCH   9  14
HETATM   14  O   UNK N   1      -5.905   7.587 -56.969  0.00  0.00    -0.358 OA
HETATM   15  H   UNK N   1      -5.238   8.161 -56.567  0.00  0.00     0.217 HD
ENDBRANCH   9  14
ENDBRANCH   5   6
ENDBRANCH   2   5
BRANCH   3  16
HETATM   16  C   UNK N   1      -7.745   3.398 -63.790  0.00  0.00     0.103 C 
BRANCH  16  17
HETATM   17  C   UNK N   1      -7.366   2.040 -63.179  0.00  0.00     0.010 C 
BRANCH  17  18
HETATM   18  C   UNK N   1      -7.319   2.088 -61.643  0.00  0.00     0.004 C 
BRANCH  18  19
HETATM   19  C   UNK N   1      -8.499   1.325 -61.038  0.00  0.00     0.027 C 
BRANCH  19  20
HETATM   20  C   UNK N   1      -9.671   2.246 -60.827  0.00  0.00    -0.030 C 
HETATM   21  C   UNK N   1      -9.507   3.515 -60.418  0.00  0.00    -0.027 C 
BRANCH  21  22
HETATM   22  C   UNK N   1     -10.685   4.440 -60.223  0.00  0.00    -0.001 C 
HETATM   23  C   UNK N   1     -11.976   3.720 -60.626  0.00  0.00     0.013 C 
HETATM   24  C   UNK N   1     -10.496   5.712 -61.054  0.00  0.00     0.013 C 
ENDBRANCH  21  22
ENDBRANCH  19  20
ENDBRANCH  18  19
ENDBRANCH  17  18
ENDBRANCH  16  17
ENDBRANCH   3  16
TORSDOF 10
ENDMDL
MODEL 8
REMARK minimizedAffinity -5.65215683
REMARK CNNscore 0.442411453
REMARK CNNaffinity 5.02538586
REMARK  10 active torsions:
REMARK  status: ('A' for Active; 'I' for Inactive)
REMARK    1  A    between atoms: O_2  and  C_19 
REMARK    2  A    between atoms: O_3  and  C_21 
REMARK       I    between atoms: N_4  and  C_11 
REMARK    3  A    between atoms: N_4  and  C_13 
REMARK    4  A    between atoms: C_5  and  C_6 
REMARK    5  A    between atoms: C_5  and  C_7 
REMARK    6  A    between atoms: C_6  and  C_8 
REMARK    7  A    between atoms: C_7  and  C_10 
REMARK    8  A    between atoms: C_8  and  C_11 
REMARK    9  A    between atoms: C_9  and  C_12 
REMARK   10  A    between atoms: C_13  and  C_14 
ROOT
HETATM    1  O   UNK N   1      -5.696   3.907 -62.963  0.00  0.00    -0.274 OA
HETATM    2  N   UNK N   1      -7.379   3.017 -64.158  0.00  0.00    -0.357 N 
HETATM    3  C   UNK N   1      -6.572   3.062 -63.059  0.00  0.00     0.217 C 
HETATM    4  H   UNK N   1      -8.082   2.268 -64.240  0.00  0.00     0.162 HD
ENDROOT
BRANCH   2   5
HETATM    5  C   UNK N   1      -7.274   3.978 -65.236  0.00  0.00     0.161 C 
BRANCH   5   6
HETATM    6  C   UNK N   1      -8.406   4.969 -65.174  0.00  0.00    -0.038 A 
HETATM    7  C   UNK N   1      -9.211   5.188 -66.299  0.00  0.00     0.048 A 
HETATM    8  C   UNK N   1     -10.281   6.106 -66.248  0.00  0.00     0.101 A 
HETATM    9  C   UNK N   1     -10.538   6.798 -65.053  0.00  0.00     0.099 A 
HETATM   10  C   UNK N   1      -9.729   6.579 -63.929  0.00  0.00     0.040 A 
HETATM   11  C   UNK N   1      -8.668   5.672 -63.989  0.00  0.00     0.012 A 
BRANCH   8  12
HETATM   12  O   UNK N   1     -11.077   6.335 -67.327  0.00  0.00    -0.353 OA
HETATM   13  C   UNK N   1     -10.622   6.747 -68.564  0.00  0.00     0.210 C 
ENDBRANCH   8  12
BRANCH   9  14
HETATM   14  O   UNK N   1     -11.567   7.671 -64.994  0.00  0.00    -0.358 OA
HETATM   15  H   UNK N   1     -11.776   8.156 -64.183  0.00  0.00     0.217 HD
ENDBRANCH   9  14
ENDBRANCH   5   6
ENDBRANCH   2   5
BRANCH   3  16
HETATM   16  C   UNK N   1      -6.753   2.056 -61.950  0.00  0.00     0.103 C 
BRANCH  16  17
HETATM   17  C   UNK N   1      -8.074   2.281 -61.198  0.00  0.00     0.010 C 
BRANCH  17  18
HETATM   18  C   UNK N   1      -7.921   3.288 -60.046  0.00  0.00     0.004 C 
BRANCH  18  19
HETATM   19  C   UNK N   1      -8.544   4.636 -60.413  0.00  0.00     0.027 C 
BRANCH  19  20
HETATM   20  C   UNK N   1      -7.486   5.705 -60.485  0.00  0.00    -0.030 C 
HETATM   21  C   UNK N   1      -6.267   5.528 -59.949  0.00  0.00    -0.027 C 
BRANCH  21  22
HETATM   22  C   UNK N   1      -5.204   6.597 -60.039  0.00  0.00    -0.001 C 
HETATM   23  C   UNK N   1      -5.361   7.577 -58.871  0.00  0.00     0.013 C 
HETATM   24  C   UNK N   1      -5.310   7.332 -61.377  0.00  0.00     0.013 C 
ENDBRANCH  21  22
ENDBRANCH  19  20
ENDBRANCH  18  19
ENDBRANCH  17  18
ENDBRANCH  16  17
ENDBRANCH   3  16
TORSDOF 10
ENDMDL
MODEL 9
REMARK minimizedAffinity -5.46382904
REMARK CNNscore 0.440749973
REMARK CNNaffinity 4.77990723
REMARK  10 active torsions:
REMARK  status: ('A' for Active; 'I' for Inactive)
REMARK    1  A    between atoms: O_2  and  C_19 
REMARK    2  A    between atoms: O_3  and  C_21 
REMARK       I    between atoms: N_4  and  C_11 
REMARK    3  A    between atoms: N_4  and  C_13 
REMARK    4  A    between atoms: C_5  and  C_6 
REMARK    5  A    between atoms: C_5  and  C_7 
REMARK    6  A    between atoms: C_6  and  C_8 
REMARK    7  A    between atoms: C_7  and  C_10 
REMARK    8  A    between atoms: C_8  and  C_11 
REMARK    9  A    between atoms: C_9  and  C_12 
REMARK   10  A    between atoms: C_13  and  C_14 
ROOT
HETATM    1  O   UNK N   1      -8.550   3.701 -60.300  0.00  0.00    -0.274 OA
HETATM    2  N   UNK N   1      -9.690   1.776 -60.523  0.00  0.00    -0.357 N 
HETATM    3  C   UNK N   1      -8.616   2.578 -60.776  0.00  0.00     0.217 C 
HETATM    4  H   UNK N   1      -9.747   0.850 -60.971  0.00  0.00     0.162 HD
ENDROOT
BRANCH   2   5
HETATM    5  C   UNK N   1     -10.776   2.186 -59.657  0.00  0.00     0.161 C 
BRANCH   5   6
HETATM    6  C   UNK N   1     -12.104   1.828 -60.268  0.00  0.00    -0.038 A 
HETATM    7  C   UNK N   1     -12.167   1.353 -61.584  0.00  0.00     0.048 A 
HETATM    8  C   UNK N   1     -13.406   1.004 -62.162  0.00  0.00     0.101 A 
HETATM    9  C   UNK N   1     -14.581   1.133 -61.404  0.00  0.00     0.099 A 
HETATM   10  C   UNK N   1     -14.516   1.612 -60.087  0.00  0.00     0.040 A 
HETATM   11  C   UNK N   1     -13.286   1.960 -59.524  0.00  0.00     0.012 A 
BRANCH   8  12
HETATM   12  O   UNK N   1     -13.493   0.540 -63.438  0.00  0.00    -0.353 OA
HETATM   13  C   UNK N   1     -12.413   0.156 -64.208  0.00  0.00     0.210 C 
ENDBRANCH   8  12
BRANCH   9  14
HETATM   14  O   UNK N   1     -15.770   0.793 -61.947  0.00  0.00    -0.358 OA
HETATM   15  H   UNK N   1     -16.596   0.860 -61.448  0.00  0.00     0.217 HD
ENDBRANCH   9  14
ENDBRANCH   5   6
ENDBRANCH   2   5
BRANCH   3  16
HETATM   16  C   UNK N   1      -7.495   2.082 -61.657  0.00  0.00     0.103 C 
BRANCH  16  17
HETATM   17  C   UNK N   1      -6.412   3.155 -61.844  0.00  0.00     0.010 C 
BRANCH  17  18
HETATM   18  C   UNK N   1      -6.193   3.507 -63.325  0.00  0.00     0.004 C 
BRANCH  18  19
HETATM   19  C   UNK N   1      -6.713   4.912 -63.633  0.00  0.00     0.027 C 
BRANCH  19  20
HETATM   20  C   UNK N   1      -8.206   4.894 -63.819  0.00  0.00    -0.030 C 
HETATM   21  C   UNK N   1      -9.030   5.547 -62.983  0.00  0.00    -0.027 C 
BRANCH  21  22
HETATM   22  C   UNK N   1     -10.526   5.540 -63.183  0.00  0.00    -0.001 C 
HETATM   23  C   UNK N   1     -10.913   6.612 -64.208  0.00  0.00     0.013 C 
HETATM   24  C   UNK N   1     -11.236   5.789 -61.850  0.00  0.00     0.013 C 
ENDBRANCH  21  22
ENDBRANCH  19  20
ENDBRANCH  18  19
ENDBRANCH  17  18
ENDBRANCH  16  17
ENDBRANCH   3  16
TORSDOF 10
ENDMDL
MODEL 10
REMARK minimizedAffinity -5.36733103
REMARK CNNscore 0.426728964
REMARK CNNaffinity 5.00430346
REMARK  10 active torsions:
REMARK  status: ('A' for Active; 'I' for Inactive)
REMARK    1  A    between atoms: O_2  and  C_19 
REMARK    2  A    between atoms: O_3  and  C_21 
REMARK       I    between atoms: N_4  and  C_11 
REMARK    3  A    between atoms: N_4  and  C_13 
REMARK    4  A    between atoms: C_5  and  C_6 
REMARK    5  A    between atoms: C_5  and  C_7 
REMARK    6  A    between atoms: C_6  and  C_8 
REMARK    7  A    between atoms: C_7  and  C_10 
REMARK    8  A    between atoms: C_8  and  C_11 
REMARK    9  A    between atoms: C_9  and  C_12 
REMARK   10  A    between atoms: C_13  and  C_14 
ROOT
HETATM    1  O   UNK N   1      -8.173   5.269 -56.958  0.00  0.00    -0.274 OA
HETATM    2  N   UNK N   1      -8.184   5.722 -59.160  0.00  0.00    -0.357 N 
HETATM    3  C   UNK N   1      -7.606   5.754 -57.925  0.00  0.00     0.217 C 
HETATM    4  H   UNK N   1      -7.709   6.176 -59.954  0.00  0.00     0.162 HD
ENDROOT
BRANCH   2   5
HETATM    5  C   UNK N   1      -9.463   5.086 -59.400  0.00  0.00     0.161 C 
BRANCH   5   6
HETATM    6  C   UNK N   1      -9.387   4.183 -60.603  0.00  0.00    -0.038 A 
HETATM    7  C   UNK N   1     -10.355   4.272 -61.611  0.00  0.00     0.048 A 
HETATM    8  C   UNK N   1     -10.287   3.438 -62.747  0.00  0.00     0.101 A 
HETATM    9  C   UNK N   1      -9.233   2.517 -62.862  0.00  0.00     0.099 A 
HETATM   10  C   UNK N   1      -8.266   2.427 -61.850  0.00  0.00     0.040 A 
HETATM   11  C   UNK N   1      -8.344   3.253 -60.726  0.00  0.00     0.012 A 
BRANCH   8  12
HETATM   12  O   UNK N   1     -11.215   3.506 -63.739  0.00  0.00    -0.353 OA
HETATM   13  C   UNK N   1     -11.458   4.625 -64.510  0.00  0.00     0.210 C 
ENDBRANCH   8  12
BRANCH   9  14
HETATM   14  O   UNK N   1      -9.155   1.721 -63.951  0.00  0.00    -0.358 OA
HETATM   15  H   UNK N   1      -8.436   1.084 -64.065  0.00  0.00     0.217 HD
ENDBRANCH   9  14
ENDBRANCH   5   6
ENDBRANCH   2   5
BRANCH   3  16
HETATM   16  C   UNK N   1      -6.254   6.398 -57.742  0.00  0.00     0.103 C 
BRANCH  16  17
HETATM   17  C   UNK N   1      -6.052   7.566 -58.719  0.00  0.00     0.010 C 
BRANCH  17  18
HETATM   18  C   UNK N   1      -4.710   7.475 -59.464  0.00  0.00     0.004 C 
BRANCH  18  19
HETATM   19  C   UNK N   1      -4.895   7.747 -60.957  0.00  0.00     0.027 C 
BRANCH  19  20
HETATM   20  C   UNK N   1      -5.618   6.602 -61.616  0.00  0.00    -0.030 C 
HETATM   21  C   UNK N   1      -6.525   6.804 -62.586  0.00  0.00    -0.027 C 
BRANCH  21  22
HETATM   22  C   UNK N   1      -7.235   5.652 -63.255  0.00  0.00    -0.001 C 
HETATM   23  C   UNK N   1      -6.210   4.754 -63.956  0.00  0.00     0.013 C 
HETATM   24  C   UNK N   1      -8.263   6.180 -64.259  0.00  0.00     0.013 C 
ENDBRANCH  21  22
ENDBRANCH  19  20
ENDBRANCH  18  19
ENDBRANCH  17  18
ENDBRANCH  16  17
ENDBRANCH   3  16
TORSDOF 10
ENDMDL
MODEL 11
REMARK minimizedAffinity -5.53577423
REMARK CNNscore 0.423358649
REMARK CNNaffinity 4.75363064
REMARK  10 active torsions:
REMARK  status: ('A' for Active; 'I' for Inactive)
REMARK    1  A    between atoms: O_2  and  C_19 
REMARK    2  A    between atoms: O_3  and  C_21 
REMARK       I    between atoms: N_4  and  C_11 
REMARK    3  A    between atoms: N_4  and  C_13 
REMARK    4  A    between atoms: C_5  and  C_6 
REMARK    5  A    between atoms: C_5  and  C_7 
REMARK    6  A    between atoms: C_6  and  C_8 
REMARK    7  A    between atoms: C_7  and  C_10 
REMARK    8  A    between atoms: C_8  and  C_11 
REMARK    9  A    between atoms: C_9  and  C_12 
REMARK   10  A    between atoms: C_13  and  C_14 
ROOT
HETATM    1  O   UNK N   1     -11.365   6.873 -63.841  0.00  0.00    -0.274 OA
HETATM    2  N   UNK N   1     -10.300   4.897 -63.716  0.00  0.00    -0.357 N 
HETATM    3  C   UNK N   1     -10.421   6.175 -64.178  0.00  0.00     0.217 C 
HETATM    4  H   UNK N   1      -9.520   4.310 -64.048  0.00  0.00     0.162 HD
ENDROOT
BRANCH   2   5
HETATM    5  C   UNK N   1     -11.244   4.318 -62.782  0.00  0.00     0.161 C 
BRANCH   5   6
HETATM    6  C   UNK N   1     -11.705   2.968 -63.265  0.00  0.00    -0.038 A 
HETATM    7  C   UNK N   1     -12.855   2.383 -62.723  0.00  0.00     0.048 A 
HETATM    8  C   UNK N   1     -13.301   1.123 -63.176  0.00  0.00     0.101 A 
HETATM    9  C   UNK N   1     -12.581   0.459 -64.183  0.00  0.00     0.099 A 
HETATM   10  C   UNK N   1     -11.427   1.046 -64.723  0.00  0.00     0.040 A 
HETATM   11  C   UNK N   1     -10.990   2.291 -64.265  0.00  0.00     0.012 A 
BRANCH   8  12
HETATM   12  O   UNK N   1     -14.416   0.535 -62.666  0.00  0.00    -0.353 OA
HETATM   13  C   UNK N   1     -15.091   0.973 -61.544  0.00  0.00     0.210 C 
ENDBRANCH   8  12
BRANCH   9  14
HETATM   14  O   UNK N   1     -13.007  -0.742 -64.629  0.00  0.00    -0.358 OA
HETATM   15  H   UNK N   1     -12.540  -1.221 -65.329  0.00  0.00     0.217 HD
ENDBRANCH   9  14
ENDBRANCH   5   6
ENDBRANCH   2   5
BRANCH   3  16
HETATM   16  C   UNK N   1      -9.386   6.737 -65.120  0.00  0.00     0.103 C 
BRANCH  16  17
HETATM   17  C   UNK N   1      -9.194   5.833 -66.347  0.00  0.00     0.010 C 
BRANCH  17  18
HETATM   18  C   UNK N   1     -10.401   5.881 -67.298  0.00  0.00     0.004 C 
BRANCH  18  19
HETATM   19  C   UNK N   1     -10.611   4.530 -67.983  0.00  0.00     0.027 C 
BRANCH  19  20
HETATM   20  C   UNK N   1     -11.804   3.822 -67.401  0.00  0.00    -0.030 C 
HETATM   21  C   UNK N   1     -12.845   3.448 -68.164  0.00  0.00    -0.027 C 
BRANCH  21  22
HETATM   22  C   UNK N   1     -14.033   2.723 -67.577  0.00  0.00    -0.001 C 
HETATM   23  C   UNK N   1     -14.248   3.175 -66.129  0.00  0.00     0.013 C 
HETATM   24  C   UNK N   1     -13.808   1.210 -67.642  0.00  0.00     0.013 C 
ENDBRANCH  21  22
ENDBRANCH  19  20
ENDBRANCH  18  19
ENDBRANCH  17  18
ENDBRANCH  16  17
ENDBRANCH   3  16
TORSDOF 10
ENDMDL
MODEL 12
REMARK minimizedAffinity -6.18895721
REMARK CNNscore 0.381430149
REMARK CNNaffinity 4.96855307
REMARK  10 active torsions:
REMARK  status: ('A' for Active; 'I' for Inactive)
REMARK    1  A    between atoms: O_2  and  C_19 
REMARK    2  A    between atoms: O_3  and  C_21 
REMARK       I    between atoms: N_4  and  C_11 
REMARK    3  A    between atoms: N_4  and  C_13 
REMARK    4  A    between atoms: C_5  and  C_6 
REMARK    5  A    between atoms: C_5  and  C_7 
REMARK    6  A    between atoms: C_6  and  C_8 
REMARK    7  A    between atoms: C_7  and  C_10 
REMARK    8  A    between atoms: C_8  and  C_11 
REMARK    9  A    between atoms: C_9  and  C_12 
REMARK   10  A    between atoms: C_13  and  C_14 
ROOT
HETATM    1  O   UNK N   1      -6.900   2.998 -63.935  0.00  0.00    -0.274 OA
HETATM    2  N   UNK N   1      -6.400   4.903 -65.019  0.00  0.00    -0.357 N 
HETATM    3  C   UNK N   1      -6.477   4.143 -63.889  0.00  0.00     0.217 C 
HETATM    4  H   UNK N   1      -6.083   5.881 -64.951  0.00  0.00     0.162 HD
ENDROOT
BRANCH   2   5
HETATM    5  C   UNK N   1      -6.768   4.392 -66.323  0.00  0.00     0.161 C 
BRANCH   5   6
HETATM    6  C   UNK N   1      -8.029   5.053 -66.814  0.00  0.00    -0.038 A 
HETATM    7  C   UNK N   1      -9.214   4.941 -66.077  0.00  0.00     0.048 A 
HETATM    8  C   UNK N   1     -10.398   5.566 -66.522  0.00  0.00     0.101 A 
HETATM    9  C   UNK N   1     -10.378   6.308 -67.715  0.00  0.00     0.099 A 
HETATM   10  C   UNK N   1      -9.191   6.417 -68.453  0.00  0.00     0.040 A 
HETATM   11  C   UNK N   1      -8.024   5.790 -68.007  0.00  0.00     0.012 A 
BRANCH   8  12
HETATM   12  O   UNK N   1     -11.561   5.472 -65.823  0.00  0.00    -0.353 OA
HETATM   13  C   UNK N   1     -12.395   4.372 -65.832  0.00  0.00     0.210 C 
ENDBRANCH   8  12
BRANCH   9  14
HETATM   14  O   UNK N   1     -11.505   6.917 -68.143  0.00  0.00    -0.358 OA
HETATM   15  H   UNK N   1     -11.522   7.444 -68.954  0.00  0.00     0.217 HD
ENDBRANCH   9  14
ENDBRANCH   5   6
ENDBRANCH   2   5
BRANCH   3  16
HETATM   16  C   UNK N   1      -6.044   4.718 -62.563  0.00  0.00     0.103 C 
BRANCH  16  17
HETATM   17  C   UNK N   1      -6.300   6.231 -62.497  0.00  0.00     0.010 C 
BRANCH  17  18
HETATM   18  C   UNK N   1      -5.504   6.906 -61.368  0.00  0.00     0.004 C 
BRANCH  18  19
HETATM   19  C   UNK N   1      -5.398   5.986 -60.150  0.00  0.00     0.027 C 
BRANCH  19  20
HETATM   20  C   UNK N   1      -5.840   6.707 -58.904  0.00  0.00    -0.030 C 
HETATM   21  C   UNK N   1      -5.330   7.901 -58.561  0.00  0.00    -0.027 C 
BRANCH  21  22
HETATM   22  C   UNK N   1      -5.789   8.628 -57.319  0.00  0.00    -0.001 C 
HETATM   23  C   UNK N   1      -4.766   9.707 -56.948  0.00  0.00     0.013 C 
HETATM   24  C   UNK N   1      -5.967   7.636 -56.167  0.00  0.00     0.013 C 
ENDBRANCH  21  22
ENDBRANCH  19  20
ENDBRANCH  18  19
ENDBRANCH  17  18
ENDBRANCH  16  17
ENDBRANCH   3  16
TORSDOF 10
ENDMDL
MODEL 13
REMARK minimizedAffinity -5.70522213
REMARK CNNscore 0.380644679
REMARK CNNaffinity 4.92153931
REMARK  10 active torsions:
REMARK  status: ('A' for Active; 'I' for Inactive)
REMARK    1  A    between atoms: O_2  and  C_19 
REMARK    2  A    between atoms: O_3  and  C_21 
REMARK       I    between atoms: N_4  and  C_11 
REMARK    3  A    between atoms: N_4  and  C_13 
REMARK    4  A    between atoms: C_5  and  C_6 
REMARK    5  A    between atoms: C_5  and  C_7 
REMARK    6  A    between atoms: C_6  and  C_8 
REMARK    7  A    between atoms: C_7  and  C_10 
REMARK    8  A    between atoms: C_8  and  C_11 
REMARK    9  A    between atoms: C_9  and  C_12 
REMARK   10  A    between atoms: C_13  and  C_14 
ROOT
HETATM    1  O   UNK N   1      -4.251   7.208 -59.454  0.00  0.00    -0.274 OA
HETATM    2  N   UNK N   1      -6.193   7.245 -60.585  0.00  0.00    -0.357 N 
HETATM    3  C   UNK N   1      -5.456   7.407 -59.449  0.00  0.00     0.217 C 
HETATM    4  H   UNK N   1      -7.215   7.374 -60.549  0.00  0.00     0.162 HD
ENDROOT
BRANCH   2   5
HETATM    5  C   UNK N   1      -5.594   6.874 -61.851  0.00  0.00     0.161 C 
BRANCH   5   6
HETATM    6  C   UNK N   1      -6.073   5.514 -62.284  0.00  0.00    -0.038 A 
HETATM    7  C   UNK N   1      -6.620   5.334 -63.560  0.00  0.00     0.048 A 
HETATM    8  C   UNK N   1      -7.062   4.061 -63.979  0.00  0.00     0.101 A 
HETATM    9  C   UNK N   1      -6.944   2.969 -63.104  0.00  0.00     0.099 A 
HETATM   10  C   UNK N   1      -6.398   3.151 -61.825  0.00  0.00     0.040 A 
HETATM   11  C   UNK N   1      -5.968   4.416 -61.416  0.00  0.00     0.012 A 
BRANCH   8  12
HETATM   12  O   UNK N   1      -7.596   3.862 -65.214  0.00  0.00    -0.353 OA
HETATM   13  C   UNK N   1      -7.437   4.719 -66.286  0.00  0.00     0.210 C 
ENDBRANCH   8  12
BRANCH   9  14
HETATM   14  O   UNK N   1      -7.355   1.746 -63.501  0.00  0.00    -0.358 OA
HETATM   15  H   UNK N   1      -7.278   0.971 -62.927  0.00  0.00     0.217 HD
ENDBRANCH   9  14
ENDBRANCH   5   6
ENDBRANCH   2   5
BRANCH   3  16
HETATM   16  C   UNK N   1      -6.130   7.832 -58.168  0.00  0.00     0.103 C 
BRANCH  16  17
HETATM   17  C   UNK N   1      -7.363   6.966 -57.870  0.00  0.00     0.010 C 
BRANCH  17  18
HETATM   18  C   UNK N   1      -7.020   5.746 -56.998  0.00  0.00     0.004 C 
BRANCH  18  19
HETATM   19  C   UNK N   1      -6.434   6.184 -55.655  0.00  0.00     0.027 C 
BRANCH  19  20
HETATM   20  C   UNK N   1      -7.530   6.614 -54.716  0.00  0.00    -0.030 C 
HETATM   21  C   UNK N   1      -8.752   6.060 -54.757  0.00  0.00    -0.027 C 
BRANCH  21  22
HETATM   22  C   UNK N   1      -9.843   6.484 -53.802  0.00  0.00    -0.001 C 
HETATM   23  C   UNK N   1     -11.155   5.789 -54.180  0.00  0.00     0.013 C 
HETATM   24  C   UNK N   1     -10.010   8.005 -53.838  0.00  0.00     0.013 C 
ENDBRANCH  21  22
ENDBRANCH  19  20
ENDBRANCH  18  19
ENDBRANCH  17  18
ENDBRANCH  16  17
ENDBRANCH   3  16
TORSDOF 10
ENDMDL
MODEL 14
REMARK minimizedAffinity -5.3641715
REMARK CNNscore 0.3616772
REMARK CNNaffinity 4.84193707
REMARK  10 active torsions:
REMARK  status: ('A' for Active; 'I' for Inactive)
REMARK    1  A    between atoms: O_2  and  C_19 
REMARK    2  A    between atoms: O_3  and  C_21 
REMARK       I    between atoms: N_4  and  C_11 
REMARK    3  A    between atoms: N_4  and  C_13 
REMARK    4  A    between atoms: C_5  and  C_6 
REMARK    5  A    between atoms: C_5  and  C_7 
REMARK    6  A    between atoms: C_6  and  C_8 
REMARK    7  A    between atoms: C_7  and  C_10 
REMARK    8  A    between atoms: C_8  and  C_11 
REMARK    9  A    between atoms: C_9  and  C_12 
REMARK   10  A    between atoms: C_13  and  C_14 
ROOT
HETATM    1  O   UNK N   1      -7.395   7.301 -56.124  0.00  0.00    -0.274 OA
HETATM    2  N   UNK N   1      -5.998   6.080 -57.393  0.00  0.00    -0.357 N 
HETATM    3  C   UNK N   1      -6.823   6.240 -56.319  0.00  0.00     0.217 C 
HETATM    4  H   UNK N   1      -5.490   5.191 -57.514  0.00  0.00     0.162 HD
ENDROOT
BRANCH   2   5
HETATM    5  C   UNK N   1      -5.789   7.127 -58.372  0.00  0.00     0.161 C 
BRANCH   5   6
HETATM    6  C   UNK N   1      -5.897   6.575 -59.769  0.00  0.00    -0.038 A 
HETATM    7  C   UNK N   1      -5.749   5.201 -59.994  0.00  0.00     0.048 A 
HETATM    8  C   UNK N   1      -5.858   4.672 -61.298  0.00  0.00     0.101 A 
HETATM    9  C   UNK N   1      -6.122   5.537 -62.372  0.00  0.00     0.099 A 
HETATM   10  C   UNK N   1      -6.267   6.913 -62.144  0.00  0.00     0.040 A 
HETATM   11  C   UNK N   1      -6.152   7.430 -60.851  0.00  0.00     0.012 A 
BRANCH   8  12
HETATM   12  O   UNK N   1      -5.719   3.341 -61.542  0.00  0.00    -0.353 OA
HETATM   13  C   UNK N   1      -6.769   2.459 -61.705  0.00  0.00     0.210 C 
ENDBRANCH   8  12
BRANCH   9  14
HETATM   14  O   UNK N   1      -6.237   5.037 -63.621  0.00  0.00    -0.358 OA
HETATM   15  H   UNK N   1      -6.429   5.605 -64.381  0.00  0.00     0.217 HD
ENDBRANCH   9  14
ENDBRANCH   5   6
ENDBRANCH   2   5
BRANCH   3  16
HETATM   16  C   UNK N   1      -7.032   5.100 -55.352  0.00  0.00     0.103 C 
BRANCH  16  17
HETATM   17  C   UNK N   1      -7.491   3.826 -56.078  0.00  0.00     0.010 C 
BRANCH  17  18
HETATM   18  C   UNK N   1      -8.969   3.502 -55.802  0.00  0.00     0.004 C 
BRANCH  18  19
HETATM   19  C   UNK N   1      -9.887   4.504 -56.503  0.00  0.00     0.027 C 
BRANCH  19  20
HETATM   20  C   UNK N   1      -9.984   4.194 -57.973  0.00  0.00    -0.030 C 
HETATM   21  C   UNK N   1      -9.391   4.968 -58.897  0.00  0.00    -0.027 C 
BRANCH  21  22
HETATM   22  C   UNK N   1      -9.477   4.643 -60.370  0.00  0.00    -0.001 C 
HETATM   23  C   UNK N   1     -10.120   5.816 -61.118  0.00  0.00     0.013 C 
HETATM   24  C   UNK N   1     -10.287   3.362 -60.578  0.00  0.00     0.013 C 
ENDBRANCH  21  22
ENDBRANCH  19  20
ENDBRANCH  18  19
ENDBRANCH  17  18
ENDBRANCH  16  17
ENDBRANCH   3  16
TORSDOF 10
ENDMDL
MODEL 15
REMARK minimizedAffinity -6.32310772
REMARK CNNscore 0.355737597
REMARK CNNaffinity 4.78114414
REMARK  10 active torsions:
REMARK  status: ('A' for Active; 'I' for Inactive)
REMARK    1  A    between atoms: O_2  and  C_19 
REMARK    2  A    between atoms: O_3  and  C_21 
REMARK       I    between atoms: N_4  and  C_11 
REMARK    3  A    between atoms: N_4  and  C_13 
REMARK    4  A    between atoms: C_5  and  C_6 
REMARK    5  A    between atoms: C_5  and  C_7 
REMARK    6  A    between atoms: C_6  and  C_8 
REMARK    7  A    between atoms: C_7  and  C_10 
REMARK    8  A    between atoms: C_8  and  C_11 
REMARK    9  A    between atoms: C_9  and  C_12 
REMARK   10  A    between atoms: C_13  and  C_14 
ROOT
HETATM    1  O   UNK N   1      -8.630   3.589 -64.957  0.00  0.00    -0.274 OA
HETATM    2  N   UNK N   1      -8.333   5.791 -64.620  0.00  0.00    -0.357 N 
HETATM    3  C   UNK N   1      -7.862   4.532 -64.851  0.00  0.00     0.217 C 
HETATM    4  H   UNK N   1      -7.665   6.565 -64.489  0.00  0.00     0.162 HD
ENDROOT
BRANCH   2   5
HETATM    5  C   UNK N   1      -9.749   6.085 -64.531  0.00  0.00     0.161 C 
BRANCH   5   6
HETATM    6  C   UNK N   1     -10.360   6.159 -65.905  0.00  0.00    -0.038 A 
HETATM    7  C   UNK N   1     -11.610   5.578 -66.151  0.00  0.00     0.048 A 
HETATM    8  C   UNK N   1     -12.196   5.651 -67.432  0.00  0.00     0.101 A 
HETATM    9  C   UNK N   1     -11.516   6.319 -68.464  0.00  0.00     0.099 A 
HETATM   10  C   UNK N   1     -10.262   6.897 -68.217  0.00  0.00     0.040 A 
HETATM   11  C   UNK N   1      -9.687   6.816 -66.946  0.00  0.00     0.012 A 
BRANCH   8  12
HETATM   12  O   UNK N   1     -13.410   5.095 -67.695  0.00  0.00    -0.353 OA
HETATM   13  C   UNK N   1     -13.772   3.807 -67.357  0.00  0.00     0.210 C 
ENDBRANCH   8  12
BRANCH   9  14
HETATM   14  O   UNK N   1     -12.074   6.401 -69.690  0.00  0.00    -0.358 OA
HETATM   15  H   UNK N   1     -11.636   6.863 -70.419  0.00  0.00     0.217 HD
ENDBRANCH   9  14
ENDBRANCH   5   6
ENDBRANCH   2   5
BRANCH   3  16
HETATM   16  C   UNK N   1      -6.377   4.292 -64.971  0.00  0.00     0.103 C 
BRANCH  16  17
HETATM   17  C   UNK N   1      -5.719   4.150 -63.591  0.00  0.00     0.010 C 
BRANCH  17  18
HETATM   18  C   UNK N   1      -6.485   3.176 -62.680  0.00  0.00     0.004 C 
BRANCH  18  19
HETATM   19  C   UNK N   1      -6.253   3.510 -61.206  0.00  0.00     0.027 C 
BRANCH  19  20
HETATM   20  C   UNK N   1      -5.661   4.887 -61.064  0.00  0.00    -0.030 C 
HETATM   21  C   UNK N   1      -5.610   5.514 -59.877  0.00  0.00    -0.027 C 
BRANCH  21  22
HETATM   22  C   UNK N   1      -4.999   6.888 -59.736  0.00  0.00    -0.001 C 
HETATM   23  C   UNK N   1      -5.801   7.705 -58.718  0.00  0.00     0.013 C 
HETATM   24  C   UNK N   1      -4.978   7.594 -61.094  0.00  0.00     0.013 C 
ENDBRANCH  21  22
ENDBRANCH  19  20
ENDBRANCH  18  19
ENDBRANCH  17  18
ENDBRANCH  16  17
ENDBRANCH   3  16
TORSDOF 10
ENDMDL
