MODEL 1
REMARK minimizedAffinity -7.09430933
REMARK CNNscore 0.821105719
REMARK CNNaffinity 6.2496419
REMARK  11 active torsions:
REMARK  status: ('A' for Active; 'I' for Inactive)
REMARK    1  A    between atoms: O_1  and  C_16 
REMARK    2  A    between atoms: O_1  and  C_23 
REMARK    3  A    between atoms: O_2  and  C_20 
REMARK    4  A    between atoms: N_8  and  C_22 
REMARK    5  A    between atoms: N_8  and  C_26 
REMARK    6  A    between atoms: N_9  and  C_24 
REMARK    7  A    between atoms: C_10  and  C_13 
REMARK    8  A    between atoms: C_11  and  C_16 
REMARK    9  A    between atoms: C_12  and  C_20 
REMARK   10  A    between atoms: C_22  and  C_23 
REMARK   11  A    between atoms: C_26  and  C_28 
ROOT
HETATM    1  N   UNK N   1      -6.002   7.467 -58.807  0.00  0.00    -0.362 N 
HETATM    2  C   UNK N   1      -7.065   4.891 -59.297  0.00  0.00     0.101 A 
HETATM    3  C   UNK N   1      -6.213   5.616 -60.346  0.00  0.00     0.052 A 
HETATM    4  C   UNK N   1      -7.226   5.578 -57.940  0.00  0.00     0.052 A 
HETATM    5  C   UNK N   1      -5.705   6.854 -60.057  0.00  0.00     0.018 A 
HETATM    6  C   UNK N   1      -6.716   6.832 -57.754  0.00  0.00     0.018 A 
HETATM    7  C   UNK N   1      -4.800   7.656 -60.969  0.00  0.00     0.069 C 
HETATM    8  C   UNK N   1      -6.804   7.624 -56.461  0.00  0.00     0.069 C 
HETATM    9  H   UNK N   1      -5.621   8.410 -58.630  0.00  0.00     0.165 HD
ENDROOT
BRANCH   3  10
HETATM   10  C   UNK N   1      -6.040   4.904 -61.673  0.00  0.00     0.292 C 
HETATM   11  O   UNK N   1      -5.367   3.883 -61.715  0.00  0.00    -0.259 OA
BRANCH  10  12
HETATM   12  O   UNK N   1      -6.674   5.330 -62.795  0.00  0.00    -0.316 OA
BRANCH  12  13
HETATM   13  C   UNK N   1      -7.624   4.624 -63.518  0.00  0.00     0.209 C 
BRANCH  13  14
HETATM   14  C   UNK N   1      -8.690   5.585 -64.073  0.00  0.00     0.299 C 
BRANCH  14  15
HETATM   15  N   UNK N   1      -8.429   5.958 -65.484  0.00  0.00     0.090 N 
HETATM   16  C   UNK N   1      -9.625   6.573 -66.091  0.00  0.00     0.310 C 
BRANCH  15  17
HETATM   17  C   UNK N   1      -8.022   4.790 -66.298  0.00  0.00     0.310 C 
BRANCH  17  18
HETATM   18  C   UNK N   1      -6.766   5.072 -67.084  0.00  0.00    -0.030 A 
HETATM   19  C   UNK N   1      -6.815   5.812 -68.278  0.00  0.00     0.009 A 
HETATM   20  C   UNK N   1      -5.638   6.089 -68.981  0.00  0.00     0.001 A 
HETATM   21  C   UNK N   1      -4.410   5.624 -68.502  0.00  0.00     0.000 A 
HETATM   22  C   UNK N   1      -4.355   4.885 -67.318  0.00  0.00     0.001 A 
HETATM   23  C   UNK N   1      -5.527   4.612 -66.608  0.00  0.00     0.009 A 
ENDBRANCH  17  18
ENDBRANCH  15  17
ENDBRANCH  14  15
ENDBRANCH  13  14
ENDBRANCH  12  13
ENDBRANCH  10  12
ENDBRANCH   3  10
BRANCH   2  24
HETATM   24  C   UNK N   1      -8.446   4.709 -59.905  0.00  0.00    -0.042 A 
HETATM   25  C   UNK N   1      -8.940   3.410 -60.136  0.00  0.00     0.044 A 
HETATM   26  C   UNK N   1     -10.233   3.212 -60.648  0.00  0.00     0.103 A 
HETATM   27  C   UNK N   1     -11.030   4.334 -60.938  0.00  0.00     0.036 A 
HETATM   28  C   UNK N   1     -10.540   5.625 -60.720  0.00  0.00     0.003 A 
HETATM   29  C   UNK N   1      -9.255   5.815 -60.205  0.00  0.00     0.008 A 
BRANCH  26  30
HETATM   30  N   UNK N   1     -10.736   1.892 -60.859  0.00  0.00    -0.116 N 
HETATM   31  O   UNK N   1     -10.243   1.136 -61.817  0.00  0.00    -0.532 OA
HETATM   32  O   UNK N   1     -11.620   1.465 -60.176  0.00  0.00    -0.532 OA
ENDBRANCH  26  30
ENDBRANCH   2  24
BRANCH   4  33
HETATM   33  C   UNK N   1      -7.953   4.792 -56.879  0.00  0.00     0.291 C 
HETATM   34  O   UNK N   1      -7.396   3.917 -56.236  0.00  0.00    -0.260 OA
BRANCH  33  35
HETATM   35  O   UNK N   1      -9.271   5.042 -56.663  0.00  0.00    -0.323 OA
HETATM   36  C   UNK N   1     -10.233   4.049 -56.666  0.00  0.00     0.213 C 
ENDBRANCH  33  35
ENDBRANCH   4  33
TORSDOF 11
ENDMDL
MODEL 2
REMARK minimizedAffinity -6.79096222
REMARK CNNscore 0.775660634
REMARK CNNaffinity 6.26137447
REMARK  11 active torsions:
REMARK  status: ('A' for Active; 'I' for Inactive)
REMARK    1  A    between atoms: O_1  and  C_16 
REMARK    2  A    between atoms: O_1  and  C_23 
REMARK    3  A    between atoms: O_2  and  C_20 
REMARK    4  A    between atoms: N_8  and  C_22 
REMARK    5  A    between atoms: N_8  and  C_26 
REMARK    6  A    between atoms: N_9  and  C_24 
REMARK    7  A    between atoms: C_10  and  C_13 
REMARK    8  A    between atoms: C_11  and  C_16 
REMARK    9  A    between atoms: C_12  and  C_20 
REMARK   10  A    between atoms: C_22  and  C_23 
REMARK   11  A    between atoms: C_26  and  C_28 
ROOT
HETATM    1  N   UNK N   1      -5.589   7.611 -58.362  0.00  0.00    -0.362 N 
HETATM    2  C   UNK N   1      -6.809   5.103 -58.836  0.00  0.00     0.101 A 
HETATM    3  C   UNK N   1      -5.942   5.784 -59.902  0.00  0.00     0.052 A 
HETATM    4  C   UNK N   1      -6.898   5.792 -57.473  0.00  0.00     0.052 A 
HETATM    5  C   UNK N   1      -5.358   6.989 -59.621  0.00  0.00     0.018 A 
HETATM    6  C   UNK N   1      -6.313   7.014 -57.295  0.00  0.00     0.018 A 
HETATM    7  C   UNK N   1      -4.430   7.742 -60.552  0.00  0.00     0.069 C 
HETATM    8  C   UNK N   1      -6.325   7.802 -55.997  0.00  0.00     0.069 C 
HETATM    9  H   UNK N   1      -5.151   8.530 -58.191  0.00  0.00     0.165 HD
ENDROOT
BRANCH   3  10
HETATM   10  C   UNK N   1      -5.842   5.070 -61.235  0.00  0.00     0.292 C 
HETATM   11  O   UNK N   1      -5.880   5.729 -62.266  0.00  0.00    -0.259 OA
BRANCH  10  12
HETATM   12  O   UNK N   1      -5.638   3.730 -61.310  0.00  0.00    -0.316 OA
BRANCH  12  13
HETATM   13  C   UNK N   1      -6.111   2.883 -62.301  0.00  0.00     0.209 C 
BRANCH  13  14
HETATM   14  C   UNK N   1      -7.227   1.982 -61.741  0.00  0.00     0.299 C 
BRANCH  14  15
HETATM   15  N   UNK N   1      -8.550   2.294 -62.333  0.00  0.00     0.090 N 
HETATM   16  C   UNK N   1      -9.427   1.107 -62.305  0.00  0.00     0.310 C 
BRANCH  15  17
HETATM   17  C   UNK N   1      -8.432   2.771 -63.729  0.00  0.00     0.310 C 
BRANCH  17  18
HETATM   18  C   UNK N   1      -9.147   4.084 -63.929  0.00  0.00    -0.030 A 
HETATM   19  C   UNK N   1      -8.425   5.282 -64.074  0.00  0.00     0.009 A 
HETATM   20  C   UNK N   1      -9.101   6.487 -64.287  0.00  0.00     0.001 A 
HETATM   21  C   UNK N   1     -10.498   6.507 -64.348  0.00  0.00     0.000 A 
HETATM   22  C   UNK N   1     -11.221   5.321 -64.200  0.00  0.00     0.001 A 
HETATM   23  C   UNK N   1     -10.550   4.112 -63.995  0.00  0.00     0.009 A 
ENDBRANCH  17  18
ENDBRANCH  15  17
ENDBRANCH  14  15
ENDBRANCH  13  14
ENDBRANCH  12  13
ENDBRANCH  10  12
ENDBRANCH   3  10
BRANCH   2  24
HETATM   24  C   UNK N   1      -8.213   5.003 -59.412  0.00  0.00    -0.042 A 
HETATM   25  C   UNK N   1      -8.990   3.857 -59.157  0.00  0.00     0.044 A 
HETATM   26  C   UNK N   1     -10.309   3.761 -59.632  0.00  0.00     0.103 A 
HETATM   27  C   UNK N   1     -10.843   4.827 -60.378  0.00  0.00     0.036 A 
HETATM   28  C   UNK N   1     -10.071   5.962 -60.642  0.00  0.00     0.003 A 
HETATM   29  C   UNK N   1      -8.762   6.053 -60.161  0.00  0.00     0.008 A 
BRANCH  26  30
HETATM   30  N   UNK N   1     -11.099   2.605 -59.351  0.00  0.00    -0.116 N 
HETATM   31  O   UNK N   1     -12.099   2.273 -60.140  0.00  0.00    -0.532 OA
HETATM   32  O   UNK N   1     -10.869   1.933 -58.389  0.00  0.00    -0.532 OA
ENDBRANCH  26  30
ENDBRANCH   2  24
BRANCH   4  33
HETATM   33  C   UNK N   1      -7.644   5.043 -56.397  0.00  0.00     0.291 C 
HETATM   34  O   UNK N   1      -8.728   5.423 -55.986  0.00  0.00    -0.260 OA
BRANCH  33  35
HETATM   35  O   UNK N   1      -7.072   3.938 -55.848  0.00  0.00    -0.323 OA
HETATM   36  C   UNK N   1      -7.809   2.883 -55.346  0.00  0.00     0.213 C 
ENDBRANCH  33  35
ENDBRANCH   4  33
TORSDOF 11
ENDMDL
MODEL 3
REMARK minimizedAffinity -6.59225178
REMARK CNNscore 0.581516266
REMARK CNNaffinity 5.90485239
REMARK  11 active torsions:
REMARK  status: ('A' for Active; 'I' for Inactive)
REMARK    1  A    between atoms: O_1  and  C_16 
REMARK    2  A    between atoms: O_1  and  C_23 
REMARK    3  A    between atoms: O_2  and  C_20 
REMARK    4  A    between atoms: N_8  and  C_22 
REMARK    5  A    between atoms: N_8  and  C_26 
REMARK    6  A    between atoms: N_9  and  C_24 
REMARK    7  A    between atoms: C_10  and  C_13 
REMARK    8  A    between atoms: C_11  and  C_16 
REMARK    9  A    between atoms: C_12  and  C_20 
REMARK   10  A    between atoms: C_22  and  C_23 
REMARK   11  A    between atoms: C_26  and  C_28 
ROOT
HETATM    1  N   UNK N   1      -5.629   7.611 -58.622  0.00  0.00    -0.362 N 
HETATM    2  C   UNK N   1      -6.776   5.051 -58.989  0.00  0.00     0.101 A 
HETATM    3  C   UNK N   1      -5.972   5.733 -60.102  0.00  0.00     0.052 A 
HETATM    4  C   UNK N   1      -6.840   5.771 -57.641  0.00  0.00     0.052 A 
HETATM    5  C   UNK N   1      -5.421   6.965 -59.872  0.00  0.00     0.018 A 
HETATM    6  C   UNK N   1      -6.293   7.016 -57.514  0.00  0.00     0.018 A 
HETATM    7  C   UNK N   1      -4.554   7.725 -60.855  0.00  0.00     0.069 C 
HETATM    8  C   UNK N   1      -6.287   7.838 -56.236  0.00  0.00     0.069 C 
HETATM    9  H   UNK N   1      -5.218   8.548 -58.489  0.00  0.00     0.165 HD
ENDROOT
BRANCH   3  10
HETATM   10  C   UNK N   1      -5.895   4.989 -61.420  0.00  0.00     0.292 C 
HETATM   11  O   UNK N   1      -5.455   3.847 -61.431  0.00  0.00    -0.259 OA
BRANCH  10  12
HETATM   12  O   UNK N   1      -6.369   5.531 -62.571  0.00  0.00    -0.316 OA
BRANCH  12  13
HETATM   13  C   UNK N   1      -6.283   4.971 -63.836  0.00  0.00     0.209 C 
BRANCH  13  14
HETATM   14  C   UNK N   1      -7.374   5.557 -64.751  0.00  0.00     0.299 C 
BRANCH  14  15
HETATM   15  N   UNK N   1      -8.453   4.581 -65.034  0.00  0.00     0.090 N 
HETATM   16  C   UNK N   1      -9.171   4.941 -66.273  0.00  0.00     0.310 C 
BRANCH  15  17
HETATM   17  C   UNK N   1      -9.427   4.496 -63.922  0.00  0.00     0.310 C 
BRANCH  17  18
HETATM   18  C   UNK N   1      -9.574   3.082 -63.419  0.00  0.00    -0.030 A 
HETATM   19  C   UNK N   1     -10.777   2.376 -63.598  0.00  0.00     0.009 A 
HETATM   20  C   UNK N   1     -10.888   1.055 -63.152  0.00  0.00     0.001 A 
HETATM   21  C   UNK N   1      -9.807   0.435 -62.519  0.00  0.00     0.000 A 
HETATM   22  C   UNK N   1      -8.610   1.132 -62.335  0.00  0.00     0.001 A 
HETATM   23  C   UNK N   1      -8.491   2.449 -62.786  0.00  0.00     0.009 A 
ENDBRANCH  17  18
ENDBRANCH  15  17
ENDBRANCH  14  15
ENDBRANCH  13  14
ENDBRANCH  12  13
ENDBRANCH  10  12
ENDBRANCH   3  10
BRANCH   2  24
HETATM   24  C   UNK N   1      -8.194   4.888 -59.510  0.00  0.00    -0.042 A 
HETATM   25  C   UNK N   1      -8.852   3.651 -59.366  0.00  0.00     0.044 A 
HETATM   26  C   UNK N   1     -10.181   3.487 -59.791  0.00  0.00     0.103 A 
HETATM   27  C   UNK N   1     -10.848   4.580 -60.374  0.00  0.00     0.036 A 
HETATM   28  C   UNK N   1     -10.196   5.807 -60.528  0.00  0.00     0.003 A 
HETATM   29  C   UNK N   1      -8.876   5.964 -60.097  0.00  0.00     0.008 A 
BRANCH  26  30
HETATM   30  N   UNK N   1     -10.848   2.236 -59.622  0.00  0.00    -0.116 N 
HETATM   31  O   UNK N   1     -10.205   1.197 -59.132  0.00  0.00    -0.532 OA
HETATM   32  O   UNK N   1     -11.996   2.115 -59.936  0.00  0.00    -0.532 OA
ENDBRANCH  26  30
ENDBRANCH   2  24
BRANCH   4  33
HETATM   33  C   UNK N   1      -7.520   5.025 -56.520  0.00  0.00     0.291 C 
HETATM   34  O   UNK N   1      -7.013   4.042 -56.005  0.00  0.00    -0.260 OA
BRANCH  33  35
HETATM   35  O   UNK N   1      -8.746   5.439 -56.103  0.00  0.00    -0.323 OA
HETATM   36  C   UNK N   1      -9.803   4.571 -55.904  0.00  0.00     0.213 C 
ENDBRANCH  33  35
ENDBRANCH   4  33
TORSDOF 11
ENDMDL
MODEL 4
REMARK minimizedAffinity -6.37495947
REMARK CNNscore 0.566881418
REMARK CNNaffinity 5.98844957
REMARK  11 active torsions:
REMARK  status: ('A' for Active; 'I' for Inactive)
REMARK    1  A    between atoms: O_1  and  C_16 
REMARK    2  A    between atoms: O_1  and  C_23 
REMARK    3  A    between atoms: O_2  and  C_20 
REMARK    4  A    between atoms: N_8  and  C_22 
REMARK    5  A    between atoms: N_8  and  C_26 
REMARK    6  A    between atoms: N_9  and  C_24 
REMARK    7  A    between atoms: C_10  and  C_13 
REMARK    8  A    between atoms: C_11  and  C_16 
REMARK    9  A    between atoms: C_12  and  C_20 
REMARK   10  A    between atoms: C_22  and  C_23 
REMARK   11  A    between atoms: C_26  and  C_28 
ROOT
HETATM    1  N   UNK N   1     -13.973   1.789 -59.268  0.00  0.00    -0.362 N 
HETATM    2  C   UNK N   1     -11.330   1.529 -60.244  0.00  0.00     0.101 A 
HETATM    3  C   UNK N   1     -11.609   1.968 -58.802  0.00  0.00     0.052 A 
HETATM    4  C   UNK N   1     -12.540   1.140 -61.096  0.00  0.00     0.052 A 
HETATM    5  C   UNK N   1     -12.904   2.062 -58.369  0.00  0.00     0.018 A 
HETATM    6  C   UNK N   1     -13.800   1.303 -60.593  0.00  0.00     0.018 A 
HETATM    7  C   UNK N   1     -13.324   2.422 -56.958  0.00  0.00     0.069 C 
HETATM    8  C   UNK N   1     -15.082   0.956 -61.330  0.00  0.00     0.069 C 
HETATM    9  H   UNK N   1     -14.937   1.891 -58.915  0.00  0.00     0.165 HD
ENDROOT
BRANCH   3  10
HETATM   10  C   UNK N   1     -10.395   2.320 -57.965  0.00  0.00     0.292 C 
HETATM   11  O   UNK N   1      -9.684   1.417 -57.543  0.00  0.00    -0.259 OA
BRANCH  10  12
HETATM   12  O   UNK N   1     -10.038   3.609 -57.738  0.00  0.00    -0.316 OA
BRANCH  12  13
HETATM   13  C   UNK N   1      -8.783   4.161 -57.945  0.00  0.00     0.209 C 
BRANCH  13  14
HETATM   14  C   UNK N   1      -8.253   4.778 -56.639  0.00  0.00     0.299 C 
BRANCH  14  15
HETATM   15  N   UNK N   1      -7.004   5.549 -56.848  0.00  0.00     0.090 N 
HETATM   16  C   UNK N   1      -6.259   5.691 -55.582  0.00  0.00     0.310 C 
BRANCH  15  17
HETATM   17  C   UNK N   1      -7.274   6.897 -57.401  0.00  0.00     0.310 C 
BRANCH  17  18
HETATM   18  C   UNK N   1      -6.576   7.104 -58.722  0.00  0.00    -0.030 A 
HETATM   19  C   UNK N   1      -5.234   7.518 -58.769  0.00  0.00     0.009 A 
HETATM   20  C   UNK N   1      -4.592   7.679 -60.002  0.00  0.00     0.001 A 
HETATM   21  C   UNK N   1      -5.286   7.437 -61.191  0.00  0.00     0.000 A 
HETATM   22  C   UNK N   1      -6.623   7.030 -61.150  0.00  0.00     0.001 A 
HETATM   23  C   UNK N   1      -7.266   6.860 -59.921  0.00  0.00     0.009 A 
ENDBRANCH  17  18
ENDBRANCH  15  17
ENDBRANCH  14  15
ENDBRANCH  13  14
ENDBRANCH  12  13
ENDBRANCH  10  12
ENDBRANCH   3  10
BRANCH   2  24
HETATM   24  C   UNK N   1     -10.622   2.689 -60.925  0.00  0.00    -0.042 A 
HETATM   25  C   UNK N   1      -9.372   2.478 -61.540  0.00  0.00     0.044 A 
HETATM   26  C   UNK N   1      -8.720   3.518 -62.221  0.00  0.00     0.103 A 
HETATM   27  C   UNK N   1      -9.330   4.785 -62.275  0.00  0.00     0.036 A 
HETATM   28  C   UNK N   1     -10.566   5.001 -61.658  0.00  0.00     0.003 A 
HETATM   29  C   UNK N   1     -11.212   3.960 -60.987  0.00  0.00     0.008 A 
BRANCH  26  30
HETATM   30  N   UNK N   1      -7.463   3.292 -62.861  0.00  0.00    -0.116 N 
HETATM   31  O   UNK N   1      -6.474   4.146 -62.709  0.00  0.00    -0.532 OA
HETATM   32  O   UNK N   1      -7.301   2.330 -63.552  0.00  0.00    -0.532 OA
ENDBRANCH  26  30
ENDBRANCH   2  24
BRANCH   4  33
HETATM   33  C   UNK N   1     -12.239   0.584 -62.465  0.00  0.00     0.291 C 
HETATM   34  O   UNK N   1     -12.341   1.268 -63.470  0.00  0.00    -0.260 OA
BRANCH  33  35
HETATM   35  O   UNK N   1     -11.880  -0.722 -62.580  0.00  0.00    -0.323 OA
HETATM   36  C   UNK N   1     -10.663  -1.123 -63.095  0.00  0.00     0.213 C 
ENDBRANCH  33  35
ENDBRANCH   4  33
TORSDOF 11
ENDMDL
MODEL 5
REMARK minimizedAffinity -6.32631254
REMARK CNNscore 0.532304585
REMARK CNNaffinity 5.75889492
REMARK  11 active torsions:
REMARK  status: ('A' for Active; 'I' for Inactive)
REMARK    1  A    between atoms: O_1  and  C_16 
REMARK    2  A    between atoms: O_1  and  C_23 
REMARK    3  A    between atoms: O_2  and  C_20 
REMARK    4  A    between atoms: N_8  and  C_22 
REMARK    5  A    between atoms: N_8  and  C_26 
REMARK    6  A    between atoms: N_9  and  C_24 
REMARK    7  A    between atoms: C_10  and  C_13 
REMARK    8  A    between atoms: C_11  and  C_16 
REMARK    9  A    between atoms: C_12  and  C_20 
REMARK   10  A    between atoms: C_22  and  C_23 
REMARK   11  A    between atoms: C_26  and  C_28 
ROOT
HETATM    1  N   UNK N   1     -13.613   1.742 -60.185  0.00  0.00    -0.362 N 
HETATM    2  C   UNK N   1     -11.032   0.674 -60.637  0.00  0.00     0.101 A 
HETATM    3  C   UNK N   1     -11.469   1.144 -59.245  0.00  0.00     0.052 A 
HETATM    4  C   UNK N   1     -12.088   0.713 -61.744  0.00  0.00     0.052 A 
HETATM    5  C   UNK N   1     -12.734   1.637 -59.070  0.00  0.00     0.018 A 
HETATM    6  C   UNK N   1     -13.314   1.258 -61.488  0.00  0.00     0.018 A 
HETATM    7  C   UNK N   1     -13.319   2.078 -57.744  0.00  0.00     0.069 C 
HETATM    8  C   UNK N   1     -14.449   1.357 -62.493  0.00  0.00     0.069 C 
HETATM    9  H   UNK N   1     -14.552   2.138 -60.022  0.00  0.00     0.165 HD
ENDROOT
BRANCH   3  10
HETATM   10  C   UNK N   1     -10.418   1.069 -58.156  0.00  0.00     0.292 C 
HETATM   11  O   UNK N   1      -9.834   0.010 -57.967  0.00  0.00    -0.259 OA
BRANCH  10  12
HETATM   12  O   UNK N   1     -10.057   2.164 -57.439  0.00  0.00    -0.316 OA
BRANCH  12  13
HETATM   13  C   UNK N   1      -9.270   3.214 -57.887  0.00  0.00     0.209 C 
BRANCH  13  14
HETATM   14  C   UNK N   1      -8.999   4.202 -56.738  0.00  0.00     0.299 C 
BRANCH  14  15
HETATM   15  N   UNK N   1      -7.565   4.562 -56.634  0.00  0.00     0.090 N 
HETATM   16  C   UNK N   1      -7.054   4.289 -55.277  0.00  0.00     0.310 C 
BRANCH  15  17
HETATM   17  C   UNK N   1      -7.329   5.988 -56.959  0.00  0.00     0.310 C 
BRANCH  17  18
HETATM   18  C   UNK N   1      -6.813   6.158 -58.366  0.00  0.00    -0.030 A 
HETATM   19  C   UNK N   1      -7.134   7.304 -59.115  0.00  0.00     0.009 A 
HETATM   20  C   UNK N   1      -6.625   7.461 -60.409  0.00  0.00     0.001 A 
HETATM   21  C   UNK N   1      -5.803   6.476 -60.964  0.00  0.00     0.000 A 
HETATM   22  C   UNK N   1      -5.485   5.333 -60.226  0.00  0.00     0.001 A 
HETATM   23  C   UNK N   1      -5.984   5.175 -58.930  0.00  0.00     0.009 A 
ENDBRANCH  17  18
ENDBRANCH  15  17
ENDBRANCH  14  15
ENDBRANCH  13  14
ENDBRANCH  12  13
ENDBRANCH  10  12
ENDBRANCH   3  10
BRANCH   2  24
HETATM   24  C   UNK N   1      -9.872   1.563 -61.055  0.00  0.00    -0.042 A 
HETATM   25  C   UNK N   1     -10.080   2.945 -61.226  0.00  0.00     0.044 A 
HETATM   26  C   UNK N   1      -9.015   3.798 -61.561  0.00  0.00     0.103 A 
HETATM   27  C   UNK N   1      -7.731   3.249 -61.733  0.00  0.00     0.036 A 
HETATM   28  C   UNK N   1      -7.522   1.876 -61.574  0.00  0.00     0.003 A 
HETATM   29  C   UNK N   1      -8.585   1.034 -61.235  0.00  0.00     0.008 A 
BRANCH  26  30
HETATM   30  N   UNK N   1      -9.228   5.202 -61.712  0.00  0.00    -0.116 N 
HETATM   31  O   UNK N   1      -9.874   5.881 -60.788  0.00  0.00    -0.532 OA
HETATM   32  O   UNK N   1      -8.834   5.773 -62.686  0.00  0.00    -0.532 OA
ENDBRANCH  26  30
ENDBRANCH   2  24
BRANCH   4  33
HETATM   33  C   UNK N   1     -11.682   0.124 -63.071  0.00  0.00     0.291 C 
HETATM   34  O   UNK N   1     -11.417   0.828 -64.031  0.00  0.00    -0.260 OA
BRANCH  33  35
HETATM   35  O   UNK N   1     -11.648  -1.229 -63.207  0.00  0.00    -0.323 OA
HETATM   36  C   UNK N   1     -10.469  -1.944 -63.298  0.00  0.00     0.213 C 
ENDBRANCH  33  35
ENDBRANCH   4  33
TORSDOF 11
ENDMDL
MODEL 6
REMARK minimizedAffinity -6.91838551
REMARK CNNscore 0.502097726
REMARK CNNaffinity 5.57047749
REMARK  11 active torsions:
REMARK  status: ('A' for Active; 'I' for Inactive)
REMARK    1  A    between atoms: O_1  and  C_16 
REMARK    2  A    between atoms: O_1  and  C_23 
REMARK    3  A    between atoms: O_2  and  C_20 
REMARK    4  A    between atoms: N_8  and  C_22 
REMARK    5  A    between atoms: N_8  and  C_26 
REMARK    6  A    between atoms: N_9  and  C_24 
REMARK    7  A    between atoms: C_10  and  C_13 
REMARK    8  A    between atoms: C_11  and  C_16 
REMARK    9  A    between atoms: C_12  and  C_20 
REMARK   10  A    between atoms: C_22  and  C_23 
REMARK   11  A    between atoms: C_26  and  C_28 
ROOT
HETATM    1  N   UNK N   1      -9.428   3.842 -57.369  0.00  0.00    -0.362 N 
HETATM    2  C   UNK N   1      -9.308   4.835 -60.016  0.00  0.00     0.101 A 
HETATM    3  C   UNK N   1     -10.420   3.876 -59.572  0.00  0.00     0.052 A 
HETATM    4  C   UNK N   1      -8.331   5.308 -58.938  0.00  0.00     0.052 A 
HETATM    5  C   UNK N   1     -10.447   3.437 -58.276  0.00  0.00     0.018 A 
HETATM    6  C   UNK N   1      -8.410   4.785 -57.678  0.00  0.00     0.018 A 
HETATM    7  C   UNK N   1     -11.517   2.541 -57.685  0.00  0.00     0.069 C 
HETATM    8  C   UNK N   1      -7.506   5.168 -56.519  0.00  0.00     0.069 C 
HETATM    9  H   UNK N   1      -9.466   3.474 -56.405  0.00  0.00     0.165 HD
ENDROOT
BRANCH   3  10
HETATM   10  C   UNK N   1     -11.395   3.443 -60.648  0.00  0.00     0.292 C 
HETATM   11  O   UNK N   1     -12.420   4.092 -60.815  0.00  0.00    -0.259 OA
BRANCH  10  12
HETATM   12  O   UNK N   1     -11.124   2.402 -61.475  0.00  0.00    -0.316 OA
BRANCH  12  13
HETATM   13  C   UNK N   1     -11.123   1.059 -61.129  0.00  0.00     0.209 C 
BRANCH  13  14
HETATM   14  C   UNK N   1     -12.531   0.626 -60.683  0.00  0.00     0.299 C 
BRANCH  14  15
HETATM   15  N   UNK N   1     -12.527  -0.706 -60.030  0.00  0.00     0.090 N 
HETATM   16  C   UNK N   1     -13.202  -0.646 -58.719  0.00  0.00     0.310 C 
BRANCH  15  17
HETATM   17  C   UNK N   1     -11.153  -1.224 -59.840  0.00  0.00     0.310 C 
BRANCH  17  18
HETATM   18  C   UNK N   1     -10.948  -2.531 -60.564  0.00  0.00    -0.030 A 
HETATM   19  C   UNK N   1     -10.905  -2.576 -61.969  0.00  0.00     0.009 A 
HETATM   20  C   UNK N   1     -10.686  -3.792 -62.625  0.00  0.00     0.001 A 
HETATM   21  C   UNK N   1     -10.518  -4.967 -61.887  0.00  0.00     0.000 A 
HETATM   22  C   UNK N   1     -10.565  -4.929 -60.491  0.00  0.00     0.001 A 
HETATM   23  C   UNK N   1     -10.775  -3.716 -59.830  0.00  0.00     0.009 A 
ENDBRANCH  17  18
ENDBRANCH  15  17
ENDBRANCH  14  15
ENDBRANCH  13  14
ENDBRANCH  12  13
ENDBRANCH  10  12
ENDBRANCH   3  10
BRANCH   2  24
HETATM   24  C   UNK N   1      -8.515   4.115 -61.094  0.00  0.00    -0.042 A 
HETATM   25  C   UNK N   1      -8.534   4.602 -62.415  0.00  0.00     0.044 A 
HETATM   26  C   UNK N   1      -7.769   3.987 -63.421  0.00  0.00     0.103 A 
HETATM   27  C   UNK N   1      -6.986   2.866 -63.091  0.00  0.00     0.036 A 
HETATM   28  C   UNK N   1      -6.972   2.373 -61.783  0.00  0.00     0.003 A 
HETATM   29  C   UNK N   1      -7.730   2.993 -60.787  0.00  0.00     0.008 A 
BRANCH  26  30
HETATM   30  N   UNK N   1      -7.776   4.500 -64.754  0.00  0.00    -0.116 N 
HETATM   31  O   UNK N   1      -7.282   3.788 -65.745  0.00  0.00    -0.532 OA
HETATM   32  O   UNK N   1      -8.220   5.587 -64.982  0.00  0.00    -0.532 OA
ENDBRANCH  26  30
ENDBRANCH   2  24
BRANCH   4  33
HETATM   33  C   UNK N   1      -7.328   6.351 -59.362  0.00  0.00     0.291 C 
HETATM   34  O   UNK N   1      -7.645   7.519 -59.516  0.00  0.00    -0.260 OA
BRANCH  33  35
HETATM   35  O   UNK N   1      -6.048   5.969 -59.615  0.00  0.00    -0.323 OA
HETATM   36  C   UNK N   1      -5.458   6.098 -60.857  0.00  0.00     0.213 C 
ENDBRANCH  33  35
ENDBRANCH   4  33
TORSDOF 11
ENDMDL
MODEL 7
REMARK minimizedAffinity -7.32050419
REMARK CNNscore 0.490213662
REMARK CNNaffinity 5.68149614
REMARK  11 active torsions:
REMARK  status: ('A' for Active; 'I' for Inactive)
REMARK    1  A    between atoms: O_1  and  C_16 
REMARK    2  A    between atoms: O_1  and  C_23 
REMARK    3  A    between atoms: O_2  and  C_20 
REMARK    4  A    between atoms: N_8  and  C_22 
REMARK    5  A    between atoms: N_8  and  C_26 
REMARK    6  A    between atoms: N_9  and  C_24 
REMARK    7  A    between atoms: C_10  and  C_13 
REMARK    8  A    between atoms: C_11  and  C_16 
REMARK    9  A    between atoms: C_12  and  C_20 
REMARK   10  A    between atoms: C_22  and  C_23 
REMARK   11  A    between atoms: C_26  and  C_28 
ROOT
HETATM    1  N   UNK N   1      -5.861   6.232 -62.826  0.00  0.00    -0.362 N 
HETATM    2  C   UNK N   1      -6.884   4.189 -61.157  0.00  0.00     0.101 A 
HETATM    3  C   UNK N   1      -6.882   4.047 -62.684  0.00  0.00     0.052 A 
HETATM    4  C   UNK N   1      -6.215   5.436 -60.577  0.00  0.00     0.052 A 
HETATM    5  C   UNK N   1      -6.360   5.055 -63.449  0.00  0.00     0.018 A 
HETATM    6  C   UNK N   1      -5.755   6.409 -61.419  0.00  0.00     0.018 A 
HETATM    7  C   UNK N   1      -6.237   5.023 -64.959  0.00  0.00     0.069 C 
HETATM    8  C   UNK N   1      -5.072   7.692 -60.975  0.00  0.00     0.069 C 
HETATM    9  H   UNK N   1      -5.495   6.982 -63.433  0.00  0.00     0.165 HD
ENDROOT
BRANCH   3  10
HETATM   10  C   UNK N   1      -7.522   2.790 -63.237  0.00  0.00     0.292 C 
HETATM   11  O   UNK N   1      -7.095   1.700 -62.880  0.00  0.00    -0.259 OA
BRANCH  10  12
HETATM   12  O   UNK N   1      -8.602   2.845 -64.059  0.00  0.00    -0.316 OA
BRANCH  12  13
HETATM   13  C   UNK N   1      -9.922   3.005 -63.667  0.00  0.00     0.209 C 
BRANCH  13  14
HETATM   14  C   UNK N   1     -10.788   1.870 -64.243  0.00  0.00     0.299 C 
BRANCH  14  15
HETATM   15  N   UNK N   1     -11.399   1.035 -63.182  0.00  0.00     0.090 N 
HETATM   16  C   UNK N   1     -12.379   1.816 -62.402  0.00  0.00     0.310 C 
BRANCH  15  17
HETATM   17  C   UNK N   1     -10.380   0.484 -62.259  0.00  0.00     0.310 C 
BRANCH  17  18
HETATM   18  C   UNK N   1     -10.618  -0.979 -61.981  0.00  0.00    -0.030 A 
HETATM   19  C   UNK N   1     -10.988  -1.416 -60.697  0.00  0.00     0.009 A 
HETATM   20  C   UNK N   1     -11.233  -2.773 -60.461  0.00  0.00     0.001 A 
HETATM   21  C   UNK N   1     -11.101  -3.700 -61.499  0.00  0.00     0.000 A 
HETATM   22  C   UNK N   1     -10.729  -3.273 -62.776  0.00  0.00     0.001 A 
HETATM   23  C   UNK N   1     -10.492  -1.917 -63.019  0.00  0.00     0.009 A 
ENDBRANCH  17  18
ENDBRANCH  15  17
ENDBRANCH  14  15
ENDBRANCH  13  14
ENDBRANCH  12  13
ENDBRANCH  10  12
ENDBRANCH   3  10
BRANCH   2  24
HETATM   24  C   UNK N   1      -8.339   4.182 -60.718  0.00  0.00    -0.042 A 
HETATM   25  C   UNK N   1      -8.850   3.071 -60.019  0.00  0.00     0.044 A 
HETATM   26  C   UNK N   1     -10.177   3.060 -59.557  0.00  0.00     0.103 A 
HETATM   27  C   UNK N   1     -10.996   4.175 -59.810  0.00  0.00     0.036 A 
HETATM   28  C   UNK N   1     -10.496   5.275 -60.512  0.00  0.00     0.003 A 
HETATM   29  C   UNK N   1      -9.173   5.282 -60.964  0.00  0.00     0.008 A 
BRANCH  26  30
HETATM   30  N   UNK N   1     -10.683   1.939 -58.829  0.00  0.00    -0.116 N 
HETATM   31  O   UNK N   1      -9.872   1.185 -58.118  0.00  0.00    -0.532 OA
HETATM   32  O   UNK N   1     -11.847   1.667 -58.868  0.00  0.00    -0.532 OA
ENDBRANCH  26  30
ENDBRANCH   2  24
BRANCH   4  33
HETATM   33  C   UNK N   1      -6.107   5.495 -59.074  0.00  0.00     0.291 C 
HETATM   34  O   UNK N   1      -5.345   4.768 -58.458  0.00  0.00    -0.260 OA
BRANCH  33  35
HETATM   35  O   UNK N   1      -6.909   6.353 -58.390  0.00  0.00    -0.323 OA
HETATM   36  C   UNK N   1      -6.424   7.249 -57.456  0.00  0.00     0.213 C 
ENDBRANCH  33  35
ENDBRANCH   4  33
TORSDOF 11
ENDMDL
MODEL 8
REMARK minimizedAffinity -7.12713814
REMARK CNNscore 0.427589715
REMARK CNNaffinity 5.91719246
REMARK  11 active torsions:
REMARK  status: ('A' for Active; 'I' for Inactive)
REMARK    1  A    between atoms: O_1  and  C_16 
REMARK    2  A    between atoms: O_1  and  C_23 
REMARK    3  A    between atoms: O_2  and  C_20 
REMARK    4  A    between atoms: N_8  and  C_22 
REMARK    5  A    between atoms: N_8  and  C_26 
REMARK    6  A    between atoms: N_9  and  C_24 
REMARK    7  A    between atoms: C_10  and  C_13 
REMARK    8  A    between atoms: C_11  and  C_16 
REMARK    9  A    between atoms: C_12  and  C_20 
REMARK   10  A    between atoms: C_22  and  C_23 
REMARK   11  A    between atoms: C_26  and  C_28 
ROOT
HETATM    1  N   UNK N   1      -7.764   5.066 -66.977  0.00  0.00    -0.362 N 
HETATM    2  C   UNK N   1      -8.634   5.439 -64.310  0.00  0.00     0.101 A 
HETATM    3  C   UNK N   1      -7.190   5.034 -64.630  0.00  0.00     0.052 A 
HETATM    4  C   UNK N   1      -9.551   5.732 -65.500  0.00  0.00     0.052 A 
HETATM    5  C   UNK N   1      -6.811   4.883 -65.936  0.00  0.00     0.018 A 
HETATM    6  C   UNK N   1      -9.097   5.516 -66.770  0.00  0.00     0.018 A 
HETATM    7  C   UNK N   1      -5.408   4.548 -66.400  0.00  0.00     0.069 C 
HETATM    8  C   UNK N   1      -9.901   5.767 -68.035  0.00  0.00     0.069 C 
HETATM    9  H   UNK N   1      -7.450   4.923 -67.949  0.00  0.00     0.165 HD
ENDROOT
BRANCH   3  10
HETATM   10  C   UNK N   1      -6.290   4.778 -63.438  0.00  0.00     0.292 C 
HETATM   11  O   UNK N   1      -5.886   3.641 -63.233  0.00  0.00    -0.259 OA
BRANCH  10  12
HETATM   12  O   UNK N   1      -5.865   5.790 -62.639  0.00  0.00    -0.316 OA
BRANCH  12  13
HETATM   13  C   UNK N   1      -5.632   5.713 -61.274  0.00  0.00     0.209 C 
BRANCH  13  14
HETATM   14  C   UNK N   1      -6.834   6.281 -60.499  0.00  0.00     0.299 C 
BRANCH  14  15
HETATM   15  N   UNK N   1      -6.601   6.297 -59.035  0.00  0.00     0.090 N 
HETATM   16  C   UNK N   1      -7.127   5.068 -58.409  0.00  0.00     0.310 C 
BRANCH  15  17
HETATM   17  C   UNK N   1      -7.229   7.472 -58.388  0.00  0.00     0.310 C 
BRANCH  17  18
HETATM   18  C   UNK N   1      -6.311   8.101 -57.370  0.00  0.00    -0.030 A 
HETATM   19  C   UNK N   1      -6.438   7.799 -56.003  0.00  0.00     0.009 A 
HETATM   20  C   UNK N   1      -5.561   8.368 -55.074  0.00  0.00     0.001 A 
HETATM   21  C   UNK N   1      -4.561   9.247 -55.501  0.00  0.00     0.000 A 
HETATM   22  C   UNK N   1      -4.432   9.555 -56.858  0.00  0.00     0.001 A 
HETATM   23  C   UNK N   1      -5.300   8.982 -57.791  0.00  0.00     0.009 A 
ENDBRANCH  17  18
ENDBRANCH  15  17
ENDBRANCH  14  15
ENDBRANCH  13  14
ENDBRANCH  12  13
ENDBRANCH  10  12
ENDBRANCH   3  10
BRANCH   2  24
HETATM   24  C   UNK N   1      -9.242   4.298 -63.511  0.00  0.00    -0.042 A 
HETATM   25  C   UNK N   1      -9.773   4.550 -62.231  0.00  0.00     0.044 A 
HETATM   26  C   UNK N   1     -10.387   3.525 -61.492  0.00  0.00     0.103 A 
HETATM   27  C   UNK N   1     -10.458   2.234 -62.046  0.00  0.00     0.036 A 
HETATM   28  C   UNK N   1      -9.923   1.978 -63.312  0.00  0.00     0.003 A 
HETATM   29  C   UNK N   1      -9.319   3.003 -64.044  0.00  0.00     0.008 A 
BRANCH  26  30
HETATM   30  N   UNK N   1     -10.943   3.792 -60.203  0.00  0.00    -0.116 N 
HETATM   31  O   UNK N   1     -10.438   4.740 -59.442  0.00  0.00    -0.532 OA
HETATM   32  O   UNK N   1     -11.866   3.148 -59.797  0.00  0.00    -0.532 OA
ENDBRANCH  26  30
ENDBRANCH   2  24
BRANCH   4  33
HETATM   33  C   UNK N   1     -10.925   6.257 -65.167  0.00  0.00     0.291 C 
HETATM   34  O   UNK N   1     -11.085   7.183 -64.389  0.00  0.00    -0.260 OA
BRANCH  33  35
HETATM   35  O   UNK N   1     -12.010   5.655 -65.721  0.00  0.00    -0.323 OA
HETATM   36  C   UNK N   1     -12.288   4.312 -65.559  0.00  0.00     0.213 C 
ENDBRANCH  33  35
ENDBRANCH   4  33
TORSDOF 11
ENDMDL
MODEL 9
REMARK minimizedAffinity -6.90709591
REMARK CNNscore 0.370572329
REMARK CNNaffinity 5.63253307
REMARK  11 active torsions:
REMARK  status: ('A' for Active; 'I' for Inactive)
REMARK    1  A    between atoms: O_1  and  C_16 
REMARK    2  A    between atoms: O_1  and  C_23 
REMARK    3  A    between atoms: O_2  and  C_20 
REMARK    4  A    between atoms: N_8  and  C_22 
REMARK    5  A    between atoms: N_8  and  C_26 
REMARK    6  A    between atoms: N_9  and  C_24 
REMARK    7  A    between atoms: C_10  and  C_13 
REMARK    8  A    between atoms: C_11  and  C_16 
REMARK    9  A    between atoms: C_12  and  C_20 
REMARK   10  A    between atoms: C_22  and  C_23 
REMARK   11  A    between atoms: C_26  and  C_28 
ROOT
HETATM    1  N   UNK N   1     -11.895   3.342 -66.251  0.00  0.00    -0.362 N 
HETATM    2  C   UNK N   1     -11.841   3.352 -63.422  0.00  0.00     0.101 A 
HETATM    3  C   UNK N   1     -11.271   4.519 -64.236  0.00  0.00     0.052 A 
HETATM    4  C   UNK N   1     -12.530   2.233 -64.206  0.00  0.00     0.052 A 
HETATM    5  C   UNK N   1     -11.336   4.478 -65.603  0.00  0.00     0.018 A 
HETATM    6  C   UNK N   1     -12.513   2.256 -65.572  0.00  0.00     0.018 A 
HETATM    7  C   UNK N   1     -10.871   5.584 -66.528  0.00  0.00     0.069 C 
HETATM    8  C   UNK N   1     -13.159   1.213 -66.468  0.00  0.00     0.069 C 
HETATM    9  H   UNK N   1     -11.908   3.333 -67.283  0.00  0.00     0.165 HD
ENDROOT
BRANCH   3  10
HETATM   10  C   UNK N   1     -10.619   5.632 -63.439  0.00  0.00     0.292 C 
HETATM   11  O   UNK N   1     -11.327   6.389 -62.789  0.00  0.00    -0.259 OA
BRANCH  10  12
HETATM   12  O   UNK N   1      -9.269   5.760 -63.371  0.00  0.00    -0.316 OA
BRANCH  12  13
HETATM   13  C   UNK N   1      -8.485   5.583 -62.241  0.00  0.00     0.209 C 
BRANCH  13  14
HETATM   14  C   UNK N   1      -7.009   5.869 -62.570  0.00  0.00     0.299 C 
BRANCH  14  15
HETATM   15  N   UNK N   1      -6.083   5.144 -61.667  0.00  0.00     0.090 N 
HETATM   16  C   UNK N   1      -5.751   3.815 -62.216  0.00  0.00     0.310 C 
BRANCH  15  17
HETATM   17  C   UNK N   1      -6.653   4.976 -60.311  0.00  0.00     0.310 C 
BRANCH  17  18
HETATM   18  C   UNK N   1      -6.327   6.150 -59.422  0.00  0.00    -0.030 A 
HETATM   19  C   UNK N   1      -5.176   6.924 -59.647  0.00  0.00     0.009 A 
HETATM   20  C   UNK N   1      -4.901   8.027 -58.831  0.00  0.00     0.001 A 
HETATM   21  C   UNK N   1      -5.767   8.358 -57.785  0.00  0.00     0.000 A 
HETATM   22  C   UNK N   1      -6.911   7.590 -57.554  0.00  0.00     0.001 A 
HETATM   23  C   UNK N   1      -7.194   6.492 -58.371  0.00  0.00     0.009 A 
ENDBRANCH  17  18
ENDBRANCH  15  17
ENDBRANCH  14  15
ENDBRANCH  13  14
ENDBRANCH  12  13
ENDBRANCH  10  12
ENDBRANCH   3  10
BRANCH   2  24
HETATM   24  C   UNK N   1     -10.678   2.746 -62.653  0.00  0.00    -0.042 A 
HETATM   25  C   UNK N   1     -10.670   2.802 -61.246  0.00  0.00     0.044 A 
HETATM   26  C   UNK N   1      -9.634   2.205 -60.507  0.00  0.00     0.103 A 
HETATM   27  C   UNK N   1      -8.594   1.555 -61.195  0.00  0.00     0.036 A 
HETATM   28  C   UNK N   1      -8.593   1.506 -62.593  0.00  0.00     0.003 A 
HETATM   29  C   UNK N   1      -9.630   2.096 -63.320  0.00  0.00     0.008 A 
BRANCH  26  30
HETATM   30  N   UNK N   1      -9.644   2.247 -59.079  0.00  0.00    -0.116 N 
HETATM   31  O   UNK N   1      -9.820   1.145 -58.381  0.00  0.00    -0.532 OA
HETATM   32  O   UNK N   1      -9.504   3.285 -58.503  0.00  0.00    -0.532 OA
ENDBRANCH  26  30
ENDBRANCH   2  24
BRANCH   4  33
HETATM   33  C   UNK N   1     -13.201   1.162 -63.384  0.00  0.00     0.291 C 
HETATM   34  O   UNK N   1     -12.716   0.048 -63.265  0.00  0.00    -0.260 OA
BRANCH  33  35
HETATM   35  O   UNK N   1     -14.395   1.436 -62.794  0.00  0.00    -0.323 OA
HETATM   36  C   UNK N   1     -14.589   1.369 -61.428  0.00  0.00     0.213 C 
ENDBRANCH  33  35
ENDBRANCH   4  33
TORSDOF 11
ENDMDL
MODEL 10
REMARK minimizedAffinity -7.12886
REMARK CNNscore 0.362609953
REMARK CNNaffinity 5.50241375
REMARK  11 active torsions:
REMARK  status: ('A' for Active; 'I' for Inactive)
REMARK    1  A    between atoms: O_1  and  C_16 
REMARK    2  A    between atoms: O_1  and  C_23 
REMARK    3  A    between atoms: O_2  and  C_20 
REMARK    4  A    between atoms: N_8  and  C_22 
REMARK    5  A    between atoms: N_8  and  C_26 
REMARK    6  A    between atoms: N_9  and  C_24 
REMARK    7  A    between atoms: C_10  and  C_13 
REMARK    8  A    between atoms: C_11  and  C_16 
REMARK    9  A    between atoms: C_12  and  C_20 
REMARK   10  A    between atoms: C_22  and  C_23 
REMARK   11  A    between atoms: C_26  and  C_28 
ROOT
HETATM    1  N   UNK N   1      -5.788   6.078 -62.903  0.00  0.00    -0.362 N 
HETATM    2  C   UNK N   1      -7.150   4.248 -61.229  0.00  0.00     0.101 A 
HETATM    3  C   UNK N   1      -7.033   4.014 -62.740  0.00  0.00     0.052 A 
HETATM    4  C   UNK N   1      -6.410   5.458 -60.656  0.00  0.00     0.052 A 
HETATM    5  C   UNK N   1      -6.349   4.918 -63.507  0.00  0.00     0.018 A 
HETATM    6  C   UNK N   1      -5.784   6.329 -61.503  0.00  0.00     0.018 A 
HETATM    7  C   UNK N   1      -6.103   4.783 -64.995  0.00  0.00     0.069 C 
HETATM    8  C   UNK N   1      -5.015   7.564 -61.068  0.00  0.00     0.069 C 
HETATM    9  H   UNK N   1      -5.297   6.750 -63.513  0.00  0.00     0.165 HD
ENDROOT
BRANCH   3  10
HETATM   10  C   UNK N   1      -7.749   2.793 -63.282  0.00  0.00     0.292 C 
HETATM   11  O   UNK N   1      -7.566   1.710 -62.742  0.00  0.00    -0.259 OA
BRANCH  10  12
HETATM   12  O   UNK N   1      -8.641   2.886 -64.301  0.00  0.00    -0.316 OA
BRANCH  12  13
HETATM   13  C   UNK N   1      -9.885   3.495 -64.248  0.00  0.00     0.209 C 
BRANCH  13  14
HETATM   14  C   UNK N   1      -9.836   4.864 -64.951  0.00  0.00     0.299 C 
BRANCH  14  15
HETATM   15  N   UNK N   1     -10.269   4.783 -66.367  0.00  0.00     0.090 N 
HETATM   16  C   UNK N   1      -9.479   5.703 -67.208  0.00  0.00     0.310 C 
BRANCH  15  17
HETATM   17  C   UNK N   1     -11.707   5.104 -66.523  0.00  0.00     0.310 C 
BRANCH  17  18
HETATM   18  C   UNK N   1     -12.514   3.878 -66.869  0.00  0.00    -0.030 A 
HETATM   19  C   UNK N   1     -13.874   3.791 -66.523  0.00  0.00     0.009 A 
HETATM   20  C   UNK N   1     -14.617   2.659 -66.876  0.00  0.00     0.001 A 
HETATM   21  C   UNK N   1     -14.008   1.608 -67.566  0.00  0.00     0.000 A 
HETATM   22  C   UNK N   1     -12.655   1.686 -67.909  0.00  0.00     0.001 A 
HETATM   23  C   UNK N   1     -11.911   2.818 -67.567  0.00  0.00     0.009 A 
ENDBRANCH  17  18
ENDBRANCH  15  17
ENDBRANCH  14  15
ENDBRANCH  13  14
ENDBRANCH  12  13
ENDBRANCH  10  12
ENDBRANCH   3  10
BRANCH   2  24
HETATM   24  C   UNK N   1      -8.631   4.408 -60.924  0.00  0.00    -0.042 A 
HETATM   25  C   UNK N   1      -9.291   3.435 -60.148  0.00  0.00     0.044 A 
HETATM   26  C   UNK N   1     -10.646   3.584 -59.807  0.00  0.00     0.103 A 
HETATM   27  C   UNK N   1     -11.341   4.720 -60.261  0.00  0.00     0.036 A 
HETATM   28  C   UNK N   1     -10.692   5.682 -61.040  0.00  0.00     0.003 A 
HETATM   29  C   UNK N   1      -9.343   5.531 -61.370  0.00  0.00     0.008 A 
BRANCH  26  30
HETATM   30  N   UNK N   1     -11.304   2.605 -59.002  0.00  0.00    -0.116 N 
HETATM   31  O   UNK N   1     -12.127   1.736 -59.548  0.00  0.00    -0.532 OA
HETATM   32  O   UNK N   1     -11.123   2.573 -57.820  0.00  0.00    -0.532 OA
ENDBRANCH  26  30
ENDBRANCH   2  24
BRANCH   4  33
HETATM   33  C   UNK N   1      -6.424   5.597 -59.155  0.00  0.00     0.291 C 
HETATM   34  O   UNK N   1      -5.702   4.920 -58.442  0.00  0.00    -0.260 OA
BRANCH  33  35
HETATM   35  O   UNK N   1      -7.293   6.474 -58.584  0.00  0.00    -0.323 OA
HETATM   36  C   UNK N   1      -6.893   7.456 -57.699  0.00  0.00     0.213 C 
ENDBRANCH  33  35
ENDBRANCH   4  33
TORSDOF 11
ENDMDL
MODEL 11
REMARK minimizedAffinity -6.84870005
REMARK CNNscore 0.358728856
REMARK CNNaffinity 5.52034473
REMARK  11 active torsions:
REMARK  status: ('A' for Active; 'I' for Inactive)
REMARK    1  A    between atoms: O_1  and  C_16 
REMARK    2  A    between atoms: O_1  and  C_23 
REMARK    3  A    between atoms: O_2  and  C_20 
REMARK    4  A    between atoms: N_8  and  C_22 
REMARK    5  A    between atoms: N_8  and  C_26 
REMARK    6  A    between atoms: N_9  and  C_24 
REMARK    7  A    between atoms: C_10  and  C_13 
REMARK    8  A    between atoms: C_11  and  C_16 
REMARK    9  A    between atoms: C_12  and  C_20 
REMARK   10  A    between atoms: C_22  and  C_23 
REMARK   11  A    between atoms: C_26  and  C_28 
ROOT
HETATM    1  N   UNK N   1      -5.986   6.224 -62.948  0.00  0.00    -0.362 N 
HETATM    2  C   UNK N   1      -6.920   4.244 -61.156  0.00  0.00     0.101 A 
HETATM    3  C   UNK N   1      -6.958   4.029 -62.674  0.00  0.00     0.052 A 
HETATM    4  C   UNK N   1      -6.261   5.530 -60.655  0.00  0.00     0.052 A 
HETATM    5  C   UNK N   1      -6.478   5.009 -63.501  0.00  0.00     0.018 A 
HETATM    6  C   UNK N   1      -5.845   6.470 -61.554  0.00  0.00     0.018 A 
HETATM    7  C   UNK N   1      -6.396   4.907 -65.010  0.00  0.00     0.069 C 
HETATM    8  C   UNK N   1      -5.176   7.785 -61.192  0.00  0.00     0.069 C 
HETATM    9  H   UNK N   1      -5.651   6.950 -63.600  0.00  0.00     0.165 HD
ENDROOT
BRANCH   3  10
HETATM   10  C   UNK N   1      -7.588   2.735 -63.149  0.00  0.00     0.292 C 
HETATM   11  O   UNK N   1      -6.975   1.687 -62.997  0.00  0.00    -0.259 OA
BRANCH  10  12
HETATM   12  O   UNK N   1      -8.841   2.704 -63.668  0.00  0.00    -0.316 OA
BRANCH  12  13
HETATM   13  C   UNK N   1      -9.932   2.033 -63.136  0.00  0.00     0.209 C 
BRANCH  13  14
HETATM   14  C   UNK N   1     -10.929   1.673 -64.252  0.00  0.00     0.299 C 
BRANCH  14  15
HETATM   15  N   UNK N   1     -11.998   2.689 -64.399  0.00  0.00     0.090 N 
HETATM   16  C   UNK N   1     -13.331   2.062 -64.308  0.00  0.00     0.310 C 
BRANCH  15  17
HETATM   17  C   UNK N   1     -11.896   3.416 -65.685  0.00  0.00     0.310 C 
BRANCH  17  18
HETATM   18  C   UNK N   1     -11.071   4.671 -65.548  0.00  0.00    -0.030 A 
HETATM   19  C   UNK N   1     -10.281   5.132 -66.616  0.00  0.00     0.009 A 
HETATM   20  C   UNK N   1      -9.543   6.313 -66.485  0.00  0.00     0.001 A 
HETATM   21  C   UNK N   1      -9.581   7.034 -65.288  0.00  0.00     0.000 A 
HETATM   22  C   UNK N   1     -10.360   6.578 -64.221  0.00  0.00     0.001 A 
HETATM   23  C   UNK N   1     -11.106   5.404 -64.350  0.00  0.00     0.009 A 
ENDBRANCH  17  18
ENDBRANCH  15  17
ENDBRANCH  14  15
ENDBRANCH  13  14
ENDBRANCH  12  13
ENDBRANCH  10  12
ENDBRANCH   3  10
BRANCH   2  24
HETATM   24  C   UNK N   1      -8.363   4.230 -60.676  0.00  0.00    -0.042 A 
HETATM   25  C   UNK N   1      -8.799   3.209 -59.810  0.00  0.00     0.044 A 
HETATM   26  C   UNK N   1     -10.112   3.201 -59.310  0.00  0.00     0.103 A 
HETATM   27  C   UNK N   1     -10.994   4.227 -59.695  0.00  0.00     0.036 A 
HETATM   28  C   UNK N   1     -10.568   5.237 -60.563  0.00  0.00     0.003 A 
HETATM   29  C   UNK N   1      -9.259   5.242 -61.051  0.00  0.00     0.008 A 
BRANCH  26  30
HETATM   30  N   UNK N   1     -10.542   2.174 -58.414  0.00  0.00    -0.116 N 
HETATM   31  O   UNK N   1      -9.760   1.775 -57.434  0.00  0.00    -0.532 OA
HETATM   32  O   UNK N   1     -11.611   1.658 -58.554  0.00  0.00    -0.532 OA
ENDBRANCH  26  30
ENDBRANCH   2  24
BRANCH   4  33
HETATM   33  C   UNK N   1      -6.113   5.662 -59.160  0.00  0.00     0.291 C 
HETATM   34  O   UNK N   1      -5.314   4.986 -58.533  0.00  0.00    -0.260 OA
BRANCH  33  35
HETATM   35  O   UNK N   1      -6.920   6.530 -58.493  0.00  0.00    -0.323 OA
HETATM   36  C   UNK N   1      -6.431   7.525 -57.669  0.00  0.00     0.213 C 
ENDBRANCH  33  35
ENDBRANCH   4  33
TORSDOF 11
ENDMDL
MODEL 12
REMARK minimizedAffinity -6.86903811
REMARK CNNscore 0.338295549
REMARK CNNaffinity 5.67970085
REMARK  11 active torsions:
REMARK  status: ('A' for Active; 'I' for Inactive)
REMARK    1  A    between atoms: O_1  and  C_16 
REMARK    2  A    between atoms: O_1  and  C_23 
REMARK    3  A    between atoms: O_2  and  C_20 
REMARK    4  A    between atoms: N_8  and  C_22 
REMARK    5  A    between atoms: N_8  and  C_26 
REMARK    6  A    between atoms: N_9  and  C_24 
REMARK    7  A    between atoms: C_10  and  C_13 
REMARK    8  A    between atoms: C_11  and  C_16 
REMARK    9  A    between atoms: C_12  and  C_20 
REMARK   10  A    between atoms: C_22  and  C_23 
REMARK   11  A    between atoms: C_26  and  C_28 
ROOT
HETATM    1  N   UNK N   1     -12.925   2.157 -60.663  0.00  0.00    -0.362 N 
HETATM    2  C   UNK N   1     -10.968   2.483 -62.680  0.00  0.00     0.101 A 
HETATM    3  C   UNK N   1     -10.614   2.615 -61.194  0.00  0.00     0.052 A 
HETATM    4  C   UNK N   1     -12.401   2.066 -63.015  0.00  0.00     0.052 A 
HETATM    5  C   UNK N   1     -11.591   2.431 -60.253  0.00  0.00     0.018 A 
HETATM    6  C   UNK N   1     -13.321   1.942 -62.012  0.00  0.00     0.018 A 
HETATM    7  C   UNK N   1     -11.371   2.471 -58.755  0.00  0.00     0.069 C 
HETATM    8  C   UNK N   1     -14.771   1.535 -62.206  0.00  0.00     0.069 C 
HETATM    9  H   UNK N   1     -13.642   2.046 -59.928  0.00  0.00     0.165 HD
ENDROOT
BRANCH   3  10
HETATM   10  C   UNK N   1      -9.181   2.999 -60.883  0.00  0.00     0.292 C 
HETATM   11  O   UNK N   1      -8.315   2.134 -60.911  0.00  0.00    -0.259 OA
BRANCH  10  12
HETATM   12  O   UNK N   1      -8.826   4.288 -60.648  0.00  0.00    -0.316 OA
BRANCH  12  13
HETATM   13  C   UNK N   1      -8.767   4.909 -59.409  0.00  0.00     0.209 C 
BRANCH  13  14
HETATM   14  C   UNK N   1      -7.348   4.789 -58.823  0.00  0.00     0.299 C 
BRANCH  14  15
HETATM   15  N   UNK N   1      -6.626   6.084 -58.833  0.00  0.00     0.090 N 
HETATM   16  C   UNK N   1      -7.510   7.171 -59.298  0.00  0.00     0.310 C 
BRANCH  15  17
HETATM   17  C   UNK N   1      -5.424   6.039 -59.696  0.00  0.00     0.310 C 
BRANCH  17  18
HETATM   18  C   UNK N   1      -5.763   5.602 -61.098  0.00  0.00    -0.030 A 
HETATM   19  C   UNK N   1      -6.215   6.531 -62.052  0.00  0.00     0.009 A 
HETATM   20  C   UNK N   1      -6.499   6.115 -63.357  0.00  0.00     0.001 A 
HETATM   21  C   UNK N   1      -6.343   4.772 -63.715  0.00  0.00     0.000 A 
HETATM   22  C   UNK N   1      -5.899   3.843 -62.770  0.00  0.00     0.001 A 
HETATM   23  C   UNK N   1      -5.605   4.255 -61.468  0.00  0.00     0.009 A 
ENDBRANCH  17  18
ENDBRANCH  15  17
ENDBRANCH  14  15
ENDBRANCH  13  14
ENDBRANCH  12  13
ENDBRANCH  10  12
ENDBRANCH   3  10
BRANCH   2  24
HETATM   24  C   UNK N   1     -10.706   3.839 -63.315  0.00  0.00    -0.042 A 
HETATM   25  C   UNK N   1      -9.902   3.925 -64.468  0.00  0.00     0.044 A 
HETATM   26  C   UNK N   1      -9.686   5.158 -65.106  0.00  0.00     0.103 A 
HETATM   27  C   UNK N   1     -10.280   6.315 -64.570  0.00  0.00     0.036 A 
HETATM   28  C   UNK N   1     -11.071   6.236 -63.419  0.00  0.00     0.003 A 
HETATM   29  C   UNK N   1     -11.286   5.005 -62.794  0.00  0.00     0.008 A 
BRANCH  26  30
HETATM   30  N   UNK N   1      -8.887   5.234 -66.287  0.00  0.00    -0.116 N 
HETATM   31  O   UNK N   1      -8.939   6.298 -67.059  0.00  0.00    -0.532 OA
HETATM   32  O   UNK N   1      -8.172   4.326 -66.594  0.00  0.00    -0.532 OA
ENDBRANCH  26  30
ENDBRANCH   2  24
BRANCH   4  33
HETATM   33  C   UNK N   1     -12.696   1.811 -64.472  0.00  0.00     0.291 C 
HETATM   34  O   UNK N   1     -12.124   0.934 -65.097  0.00  0.00    -0.260 OA
BRANCH  33  35
HETATM   35  O   UNK N   1     -13.596   2.605 -65.110  0.00  0.00    -0.323 OA
HETATM   36  C   UNK N   1     -13.231   3.535 -66.065  0.00  0.00     0.213 C 
ENDBRANCH  33  35
ENDBRANCH   4  33
TORSDOF 11
ENDMDL
MODEL 13
REMARK minimizedAffinity -7.28943014
REMARK CNNscore 0.311571002
REMARK CNNaffinity 5.53680229
REMARK  11 active torsions:
REMARK  status: ('A' for Active; 'I' for Inactive)
REMARK    1  A    between atoms: O_1  and  C_16 
REMARK    2  A    between atoms: O_1  and  C_23 
REMARK    3  A    between atoms: O_2  and  C_20 
REMARK    4  A    between atoms: N_8  and  C_22 
REMARK    5  A    between atoms: N_8  and  C_26 
REMARK    6  A    between atoms: N_9  and  C_24 
REMARK    7  A    between atoms: C_10  and  C_13 
REMARK    8  A    between atoms: C_11  and  C_16 
REMARK    9  A    between atoms: C_12  and  C_20 
REMARK   10  A    between atoms: C_22  and  C_23 
REMARK   11  A    between atoms: C_26  and  C_28 
ROOT
HETATM    1  N   UNK N   1      -5.938   7.405 -58.751  0.00  0.00    -0.362 N 
HETATM    2  C   UNK N   1      -7.067   4.863 -59.273  0.00  0.00     0.101 A 
HETATM    3  C   UNK N   1      -6.190   5.576 -60.309  0.00  0.00     0.052 A 
HETATM    4  C   UNK N   1      -7.217   5.541 -57.910  0.00  0.00     0.052 A 
HETATM    5  C   UNK N   1      -5.651   6.796 -60.005  0.00  0.00     0.018 A 
HETATM    6  C   UNK N   1      -6.675   6.779 -57.708  0.00  0.00     0.018 A 
HETATM    7  C   UNK N   1      -4.719   7.583 -60.905  0.00  0.00     0.069 C 
HETATM    8  C   UNK N   1      -6.749   7.560 -56.407  0.00  0.00     0.069 C 
HETATM    9  H   UNK N   1      -5.533   8.335 -58.562  0.00  0.00     0.165 HD
ENDROOT
BRANCH   3  10
HETATM   10  C   UNK N   1      -6.029   4.873 -61.642  0.00  0.00     0.292 C 
HETATM   11  O   UNK N   1      -5.431   3.806 -61.682  0.00  0.00    -0.259 OA
BRANCH  10  12
HETATM   12  O   UNK N   1      -6.596   5.360 -62.775  0.00  0.00    -0.316 OA
BRANCH  12  13
HETATM   13  C   UNK N   1      -7.724   4.861 -63.408  0.00  0.00     0.209 C 
BRANCH  13  14
HETATM   14  C   UNK N   1      -8.482   5.998 -64.116  0.00  0.00     0.299 C 
BRANCH  14  15
HETATM   15  N   UNK N   1      -9.004   5.584 -65.441  0.00  0.00     0.090 N 
HETATM   16  C   UNK N   1      -7.951   4.921 -66.233  0.00  0.00     0.310 C 
BRANCH  15  17
HETATM   17  C   UNK N   1      -9.531   6.735 -66.209  0.00  0.00     0.310 C 
BRANCH  17  18
HETATM   18  C   UNK N   1     -10.779   6.368 -66.972  0.00  0.00    -0.030 A 
HETATM   19  C   UNK N   1     -10.890   6.647 -68.346  0.00  0.00     0.009 A 
HETATM   20  C   UNK N   1     -12.043   6.274 -69.046  0.00  0.00     0.001 A 
HETATM   21  C   UNK N   1     -13.091   5.632 -68.381  0.00  0.00     0.000 A 
HETATM   22  C   UNK N   1     -12.988   5.356 -67.015  0.00  0.00     0.001 A 
HETATM   23  C   UNK N   1     -11.836   5.718 -66.313  0.00  0.00     0.009 A 
ENDBRANCH  17  18
ENDBRANCH  15  17
ENDBRANCH  14  15
ENDBRANCH  13  14
ENDBRANCH  12  13
ENDBRANCH  10  12
ENDBRANCH   3  10
BRANCH   2  24
HETATM   24  C   UNK N   1      -8.449   4.725 -59.890  0.00  0.00    -0.042 A 
HETATM   25  C   UNK N   1      -8.975   3.443 -60.141  0.00  0.00     0.044 A 
HETATM   26  C   UNK N   1     -10.270   3.284 -60.662  0.00  0.00     0.103 A 
HETATM   27  C   UNK N   1     -11.037   4.430 -60.940  0.00  0.00     0.036 A 
HETATM   28  C   UNK N   1     -10.515   5.705 -60.702  0.00  0.00     0.003 A 
HETATM   29  C   UNK N   1      -9.228   5.855 -60.178  0.00  0.00     0.008 A 
BRANCH  26  30
HETATM   30  N   UNK N   1     -10.805   1.980 -60.893  0.00  0.00    -0.116 N 
HETATM   31  O   UNK N   1     -10.753   1.061 -59.952  0.00  0.00    -0.532 OA
HETATM   32  O   UNK N   1     -11.293   1.705 -61.950  0.00  0.00    -0.532 OA
ENDBRANCH  26  30
ENDBRANCH   2  24
BRANCH   4  33
HETATM   33  C   UNK N   1      -7.971   4.764 -56.860  0.00  0.00     0.291 C 
HETATM   34  O   UNK N   1      -7.444   3.862 -56.229  0.00  0.00    -0.260 OA
BRANCH  33  35
HETATM   35  O   UNK N   1      -9.281   5.055 -56.641  0.00  0.00    -0.323 OA
HETATM   36  C   UNK N   1     -10.277   4.097 -56.673  0.00  0.00     0.213 C 
ENDBRANCH  33  35
ENDBRANCH   4  33
TORSDOF 11
ENDMDL
MODEL 14
REMARK minimizedAffinity -6.14303064
REMARK CNNscore 0.306100339
REMARK CNNaffinity 5.44420147
REMARK  11 active torsions:
REMARK  status: ('A' for Active; 'I' for Inactive)
REMARK    1  A    between atoms: O_1  and  C_16 
REMARK    2  A    between atoms: O_1  and  C_23 
REMARK    3  A    between atoms: O_2  and  C_20 
REMARK    4  A    between atoms: N_8  and  C_22 
REMARK    5  A    between atoms: N_8  and  C_26 
REMARK    6  A    between atoms: N_9  and  C_24 
REMARK    7  A    between atoms: C_10  and  C_13 
REMARK    8  A    between atoms: C_11  and  C_16 
REMARK    9  A    between atoms: C_12  and  C_20 
REMARK   10  A    between atoms: C_22  and  C_23 
REMARK   11  A    between atoms: C_26  and  C_28 
ROOT
HETATM    1  N   UNK N   1      -9.310   5.988 -60.066  0.00  0.00    -0.362 N 
HETATM    2  C   UNK N   1      -8.537   3.962 -58.249  0.00  0.00     0.101 A 
HETATM    3  C   UNK N   1      -9.807   3.831 -59.099  0.00  0.00     0.052 A 
HETATM    4  C   UNK N   1      -7.657   5.186 -58.504  0.00  0.00     0.052 A 
HETATM    5  C   UNK N   1     -10.130   4.829 -59.978  0.00  0.00     0.018 A 
HETATM    6  C   UNK N   1      -8.079   6.152 -59.373  0.00  0.00     0.018 A 
HETATM    7  C   UNK N   1     -11.316   4.805 -60.921  0.00  0.00     0.069 C 
HETATM    8  C   UNK N   1      -7.304   7.413 -59.717  0.00  0.00     0.069 C 
HETATM    9  H   UNK N   1      -9.594   6.731 -60.723  0.00  0.00     0.165 HD
ENDROOT
BRANCH   3  10
HETATM   10  C   UNK N   1     -10.649   2.595 -58.853  0.00  0.00     0.292 C 
HETATM   11  O   UNK N   1     -11.806   2.732 -58.477  0.00  0.00    -0.259 OA
BRANCH  10  12
HETATM   12  O   UNK N   1     -10.176   1.349 -59.110  0.00  0.00    -0.316 OA
BRANCH  12  13
HETATM   13  C   UNK N   1      -9.641   0.908 -60.310  0.00  0.00     0.209 C 
BRANCH  13  14
HETATM   14  C   UNK N   1     -10.628   1.174 -61.461  0.00  0.00     0.299 C 
BRANCH  14  15
HETATM   15  N   UNK N   1     -10.006   1.938 -62.569  0.00  0.00     0.090 N 
HETATM   16  C   UNK N   1     -10.651   1.609 -63.855  0.00  0.00     0.310 C 
BRANCH  15  17
HETATM   17  C   UNK N   1      -8.554   1.670 -62.677  0.00  0.00     0.310 C 
BRANCH  17  18
HETATM   18  C   UNK N   1      -7.744   2.934 -62.534  0.00  0.00    -0.030 A 
HETATM   19  C   UNK N   1      -6.581   2.957 -61.745  0.00  0.00     0.009 A 
HETATM   20  C   UNK N   1      -5.825   4.130 -61.645  0.00  0.00     0.001 A 
HETATM   21  C   UNK N   1      -6.228   5.285 -62.322  0.00  0.00     0.000 A 
HETATM   22  C   UNK N   1      -7.386   5.269 -63.104  0.00  0.00     0.001 A 
HETATM   23  C   UNK N   1      -8.140   4.098 -63.214  0.00  0.00     0.009 A 
ENDBRANCH  17  18
ENDBRANCH  15  17
ENDBRANCH  14  15
ENDBRANCH  13  14
ENDBRANCH  12  13
ENDBRANCH  10  12
ENDBRANCH   3  10
BRANCH   2  24
HETATM   24  C   UNK N   1      -8.985   3.991 -56.797  0.00  0.00    -0.042 A 
HETATM   25  C   UNK N   1      -8.509   3.014 -55.901  0.00  0.00     0.044 A 
HETATM   26  C   UNK N   1      -8.864   3.047 -54.543  0.00  0.00     0.103 A 
HETATM   27  C   UNK N   1      -9.714   4.072 -54.086  0.00  0.00     0.036 A 
HETATM   28  C   UNK N   1     -10.197   5.038 -54.973  0.00  0.00     0.003 A 
HETATM   29  C   UNK N   1      -9.834   5.002 -56.322  0.00  0.00     0.008 A 
BRANCH  26  30
HETATM   30  N   UNK N   1      -8.361   2.065 -53.636  0.00  0.00    -0.116 N 
HETATM   31  O   UNK N   1      -7.064   1.879 -53.507  0.00  0.00    -0.532 OA
HETATM   32  O   UNK N   1      -9.113   1.393 -52.993  0.00  0.00    -0.532 OA
ENDBRANCH  26  30
ENDBRANCH   2  24
BRANCH   4  33
HETATM   33  C   UNK N   1      -6.348   5.231 -57.756  0.00  0.00     0.291 C 
HETATM   34  O   UNK N   1      -5.321   4.780 -58.236  0.00  0.00    -0.260 OA
BRANCH  33  35
HETATM   35  O   UNK N   1      -6.325   5.754 -56.502  0.00  0.00    -0.323 OA
HETATM   36  C   UNK N   1      -6.265   7.113 -56.257  0.00  0.00     0.213 C 
ENDBRANCH  33  35
ENDBRANCH   4  33
TORSDOF 11
ENDMDL
MODEL 15
REMARK minimizedAffinity -7.05493069
REMARK CNNscore 0.286444664
REMARK CNNaffinity 5.40452576
REMARK  11 active torsions:
REMARK  status: ('A' for Active; 'I' for Inactive)
REMARK    1  A    between atoms: O_1  and  C_16 
REMARK    2  A    between atoms: O_1  and  C_23 
REMARK    3  A    between atoms: O_2  and  C_20 
REMARK    4  A    between atoms: N_8  and  C_22 
REMARK    5  A    between atoms: N_8  and  C_26 
REMARK    6  A    between atoms: N_9  and  C_24 
REMARK    7  A    between atoms: C_10  and  C_13 
REMARK    8  A    between atoms: C_11  and  C_16 
REMARK    9  A    between atoms: C_12  and  C_20 
REMARK   10  A    between atoms: C_22  and  C_23 
REMARK   11  A    between atoms: C_26  and  C_28 
ROOT
HETATM    1  N   UNK N   1      -7.193   4.570 -62.403  0.00  0.00    -0.362 N 
HETATM    2  C   UNK N   1      -9.649   5.107 -63.701  0.00  0.00     0.101 A 
HETATM    3  C   UNK N   1      -9.555   5.019 -62.173  0.00  0.00     0.052 A 
HETATM    4  C   UNK N   1      -8.339   4.994 -64.482  0.00  0.00     0.052 A 
HETATM    5  C   UNK N   1      -8.342   4.775 -61.589  0.00  0.00     0.018 A 
HETATM    6  C   UNK N   1      -7.179   4.711 -63.818  0.00  0.00     0.018 A 
HETATM    7  C   UNK N   1      -8.091   4.724 -60.096  0.00  0.00     0.069 C 
HETATM    8  C   UNK N   1      -5.814   4.574 -64.471  0.00  0.00     0.069 C 
HETATM    9  H   UNK N   1      -6.298   4.366 -61.932  0.00  0.00     0.165 HD
ENDROOT
BRANCH   3  10
HETATM   10  C   UNK N   1     -10.860   5.164 -61.415  0.00  0.00     0.292 C 
HETATM   11  O   UNK N   1     -11.564   6.142 -61.629  0.00  0.00    -0.259 OA
BRANCH  10  12
HETATM   12  O   UNK N   1     -11.299   4.201 -60.565  0.00  0.00    -0.316 OA
BRANCH  12  13
HETATM   13  C   UNK N   1     -11.229   2.832 -60.772  0.00  0.00     0.209 C 
BRANCH  13  14
HETATM   14  C   UNK N   1     -12.641   2.251 -60.965  0.00  0.00     0.299 C 
BRANCH  14  15
HETATM   15  N   UNK N   1     -12.645   0.769 -60.954  0.00  0.00     0.090 N 
HETATM   16  C   UNK N   1     -13.594   0.257 -59.946  0.00  0.00     0.310 C 
BRANCH  15  17
HETATM   17  C   UNK N   1     -11.301   0.215 -60.672  0.00  0.00     0.310 C 
BRANCH  17  18
HETATM   18  C   UNK N   1     -11.125  -1.153 -61.282  0.00  0.00    -0.030 A 
HETATM   19  C   UNK N   1     -10.828  -1.299 -62.648  0.00  0.00     0.009 A 
HETATM   20  C   UNK N   1     -10.640  -2.573 -63.193  0.00  0.00     0.001 A 
HETATM   21  C   UNK N   1     -10.756  -3.707 -62.383  0.00  0.00     0.000 A 
HETATM   22  C   UNK N   1     -11.056  -3.568 -61.025  0.00  0.00     0.001 A 
HETATM   23  C   UNK N   1     -11.236  -2.297 -60.474  0.00  0.00     0.009 A 
ENDBRANCH  17  18
ENDBRANCH  15  17
ENDBRANCH  14  15
ENDBRANCH  13  14
ENDBRANCH  12  13
ENDBRANCH  10  12
ENDBRANCH   3  10
BRANCH   2  24
HETATM   24  C   UNK N   1     -10.569   3.982 -64.148  0.00  0.00    -0.042 A 
HETATM   25  C   UNK N   1     -11.769   4.288 -64.819  0.00  0.00     0.044 A 
HETATM   26  C   UNK N   1     -12.612   3.267 -65.289  0.00  0.00     0.103 A 
HETATM   27  C   UNK N   1     -12.244   1.927 -65.073  0.00  0.00     0.036 A 
HETATM   28  C   UNK N   1     -11.059   1.619 -64.398  0.00  0.00     0.003 A 
HETATM   29  C   UNK N   1     -10.222   2.639 -63.938  0.00  0.00     0.008 A 
BRANCH  26  30
HETATM   30  N   UNK N   1     -13.816   3.585 -65.988  0.00  0.00    -0.116 N 
HETATM   31  O   UNK N   1     -13.880   4.652 -66.756  0.00  0.00    -0.532 OA
HETATM   32  O   UNK N   1     -14.784   2.891 -65.872  0.00  0.00    -0.532 OA
ENDBRANCH  26  30
ENDBRANCH   2  24
BRANCH   4  33
HETATM   33  C   UNK N   1      -8.432   5.215 -65.971  0.00  0.00     0.291 C 
HETATM   34  O   UNK N   1      -8.084   4.361 -66.769  0.00  0.00    -0.260 OA
BRANCH  33  35
HETATM   35  O   UNK N   1      -8.880   6.414 -66.431  0.00  0.00    -0.323 OA
HETATM   36  C   UNK N   1      -9.863   6.527 -67.395  0.00  0.00     0.213 C 
ENDBRANCH  33  35
ENDBRANCH   4  33
TORSDOF 11
ENDMDL
